[VMEM] WARNING: physical memory size is smaller than virtual memory size.

*** ChampSim Multicore Out-of-Order Simulator ***
Warmup Instructions: 50000000
Simulation Instructions: 200000000
Number of CPUs: 1
Page size: 4096
Core 0: /local-ssd/ben/dpc4-traces/SPEC17/649.fotonik3d_s-7084B.champsimtrace.xz
Off-chip DRAM Size: 64 GiB Channels: 1 Width: 64-bit Data Rate: 4807 MT/s
Heartbeat CPU 0 instructions: 500001 cycles: 103035 heartbeat IPC: 4.853 cumulative IPC: 4.853 (Simulation time: 00 hr 00 min 02 sec)
Heartbeat CPU 0 instructions: 1000001 cycles: 203031 heartbeat IPC: 5 cumulative IPC: 4.925 (Simulation time: 00 hr 00 min 04 sec)
Heartbeat CPU 0 instructions: 1500005 cycles: 303468 heartbeat IPC: 4.978 cumulative IPC: 4.943 (Simulation time: 00 hr 00 min 06 sec)
Heartbeat CPU 0 instructions: 2000007 cycles: 403458 heartbeat IPC: 5.001 cumulative IPC: 4.957 (Simulation time: 00 hr 00 min 08 sec)
Heartbeat CPU 0 instructions: 2500010 cycles: 503919 heartbeat IPC: 4.977 cumulative IPC: 4.961 (Simulation time: 00 hr 00 min 09 sec)
Heartbeat CPU 0 instructions: 3000012 cycles: 604024 heartbeat IPC: 4.995 cumulative IPC: 4.967 (Simulation time: 00 hr 00 min 11 sec)
Heartbeat CPU 0 instructions: 3500017 cycles: 704031 heartbeat IPC: 5 cumulative IPC: 4.971 (Simulation time: 00 hr 00 min 13 sec)
Heartbeat CPU 0 instructions: 4000017 cycles: 804156 heartbeat IPC: 4.994 cumulative IPC: 4.974 (Simulation time: 00 hr 00 min 15 sec)
Heartbeat CPU 0 instructions: 4500017 cycles: 904162 heartbeat IPC: 5 cumulative IPC: 4.977 (Simulation time: 00 hr 00 min 17 sec)
Heartbeat CPU 0 instructions: 5000020 cycles: 1004160 heartbeat IPC: 5 cumulative IPC: 4.979 (Simulation time: 00 hr 00 min 18 sec)
Heartbeat CPU 0 instructions: 5500021 cycles: 1104150 heartbeat IPC: 5.001 cumulative IPC: 4.981 (Simulation time: 00 hr 00 min 20 sec)
Heartbeat CPU 0 instructions: 6000021 cycles: 1204159 heartbeat IPC: 5 cumulative IPC: 4.983 (Simulation time: 00 hr 00 min 22 sec)
Heartbeat CPU 0 instructions: 6500028 cycles: 1304162 heartbeat IPC: 5 cumulative IPC: 4.984 (Simulation time: 00 hr 00 min 24 sec)
Heartbeat CPU 0 instructions: 7000028 cycles: 1404167 heartbeat IPC: 5 cumulative IPC: 4.985 (Simulation time: 00 hr 00 min 26 sec)
Heartbeat CPU 0 instructions: 7500035 cycles: 1504160 heartbeat IPC: 5 cumulative IPC: 4.986 (Simulation time: 00 hr 00 min 27 sec)
Heartbeat CPU 0 instructions: 8000035 cycles: 1604168 heartbeat IPC: 5 cumulative IPC: 4.987 (Simulation time: 00 hr 00 min 29 sec)
Heartbeat CPU 0 instructions: 8500037 cycles: 1704160 heartbeat IPC: 5 cumulative IPC: 4.988 (Simulation time: 00 hr 00 min 31 sec)
Heartbeat CPU 0 instructions: 9000040 cycles: 1804156 heartbeat IPC: 5 cumulative IPC: 4.989 (Simulation time: 00 hr 00 min 33 sec)
Heartbeat CPU 0 instructions: 9500047 cycles: 1904164 heartbeat IPC: 5 cumulative IPC: 4.989 (Simulation time: 00 hr 00 min 35 sec)
Heartbeat CPU 0 instructions: 10000048 cycles: 2004423 heartbeat IPC: 4.987 cumulative IPC: 4.989 (Simulation time: 00 hr 00 min 36 sec)
Heartbeat CPU 0 instructions: 10500054 cycles: 2104916 heartbeat IPC: 4.976 cumulative IPC: 4.988 (Simulation time: 00 hr 00 min 38 sec)
Heartbeat CPU 0 instructions: 11000060 cycles: 2204916 heartbeat IPC: 5 cumulative IPC: 4.989 (Simulation time: 00 hr 00 min 40 sec)
Heartbeat CPU 0 instructions: 11500066 cycles: 2305686 heartbeat IPC: 4.962 cumulative IPC: 4.988 (Simulation time: 00 hr 00 min 42 sec)
Heartbeat CPU 0 instructions: 12000068 cycles: 2405694 heartbeat IPC: 5 cumulative IPC: 4.988 (Simulation time: 00 hr 00 min 43 sec)
Heartbeat CPU 0 instructions: 12500068 cycles: 2505680 heartbeat IPC: 5.001 cumulative IPC: 4.989 (Simulation time: 00 hr 00 min 45 sec)
Heartbeat CPU 0 instructions: 13000068 cycles: 2605684 heartbeat IPC: 5 cumulative IPC: 4.989 (Simulation time: 00 hr 00 min 47 sec)
Heartbeat CPU 0 instructions: 13500069 cycles: 2705698 heartbeat IPC: 4.999 cumulative IPC: 4.989 (Simulation time: 00 hr 00 min 49 sec)
Heartbeat CPU 0 instructions: 14000069 cycles: 2805678 heartbeat IPC: 5.001 cumulative IPC: 4.99 (Simulation time: 00 hr 00 min 51 sec)
Heartbeat CPU 0 instructions: 14500070 cycles: 2906368 heartbeat IPC: 4.966 cumulative IPC: 4.989 (Simulation time: 00 hr 00 min 52 sec)
Heartbeat CPU 0 instructions: 15000073 cycles: 3006374 heartbeat IPC: 5 cumulative IPC: 4.989 (Simulation time: 00 hr 00 min 54 sec)
Heartbeat CPU 0 instructions: 15500078 cycles: 3106372 heartbeat IPC: 5 cumulative IPC: 4.99 (Simulation time: 00 hr 00 min 56 sec)
Heartbeat CPU 0 instructions: 16000081 cycles: 3206374 heartbeat IPC: 5 cumulative IPC: 4.99 (Simulation time: 00 hr 00 min 58 sec)
Heartbeat CPU 0 instructions: 16500085 cycles: 3306490 heartbeat IPC: 4.994 cumulative IPC: 4.99 (Simulation time: 00 hr 01 min 00 sec)
Heartbeat CPU 0 instructions: 17000089 cycles: 3406490 heartbeat IPC: 5 cumulative IPC: 4.991 (Simulation time: 00 hr 01 min 01 sec)
Heartbeat CPU 0 instructions: 17500096 cycles: 3506495 heartbeat IPC: 5 cumulative IPC: 4.991 (Simulation time: 00 hr 01 min 03 sec)
Heartbeat CPU 0 instructions: 18000099 cycles: 3606477 heartbeat IPC: 5.001 cumulative IPC: 4.991 (Simulation time: 00 hr 01 min 05 sec)
Heartbeat CPU 0 instructions: 18500099 cycles: 3707008 heartbeat IPC: 4.974 cumulative IPC: 4.991 (Simulation time: 00 hr 01 min 07 sec)
Heartbeat CPU 0 instructions: 19000102 cycles: 3807003 heartbeat IPC: 5 cumulative IPC: 4.991 (Simulation time: 00 hr 01 min 09 sec)
Heartbeat CPU 0 instructions: 19500103 cycles: 3907013 heartbeat IPC: 5 cumulative IPC: 4.991 (Simulation time: 00 hr 01 min 10 sec)
Heartbeat CPU 0 instructions: 20000109 cycles: 4007124 heartbeat IPC: 4.995 cumulative IPC: 4.991 (Simulation time: 00 hr 01 min 12 sec)
Heartbeat CPU 0 instructions: 20500113 cycles: 4107244 heartbeat IPC: 4.994 cumulative IPC: 4.991 (Simulation time: 00 hr 01 min 14 sec)
Heartbeat CPU 0 instructions: 21000117 cycles: 4207617 heartbeat IPC: 4.981 cumulative IPC: 4.991 (Simulation time: 00 hr 01 min 16 sec)
Heartbeat CPU 0 instructions: 21500118 cycles: 4307614 heartbeat IPC: 5 cumulative IPC: 4.991 (Simulation time: 00 hr 01 min 18 sec)
Heartbeat CPU 0 instructions: 22000120 cycles: 4407624 heartbeat IPC: 5 cumulative IPC: 4.991 (Simulation time: 00 hr 01 min 19 sec)
Heartbeat CPU 0 instructions: 22500127 cycles: 4507622 heartbeat IPC: 5 cumulative IPC: 4.992 (Simulation time: 00 hr 01 min 21 sec)
Heartbeat CPU 0 instructions: 23000127 cycles: 4607627 heartbeat IPC: 5 cumulative IPC: 4.992 (Simulation time: 00 hr 01 min 23 sec)
Heartbeat CPU 0 instructions: 23500132 cycles: 4707609 heartbeat IPC: 5.001 cumulative IPC: 4.992 (Simulation time: 00 hr 01 min 25 sec)
Heartbeat CPU 0 instructions: 24000138 cycles: 4807611 heartbeat IPC: 5 cumulative IPC: 4.992 (Simulation time: 00 hr 01 min 27 sec)
Heartbeat CPU 0 instructions: 24500140 cycles: 4907634 heartbeat IPC: 4.999 cumulative IPC: 4.992 (Simulation time: 00 hr 01 min 29 sec)
Heartbeat CPU 0 instructions: 25000142 cycles: 5007609 heartbeat IPC: 5.001 cumulative IPC: 4.992 (Simulation time: 00 hr 01 min 30 sec)
Heartbeat CPU 0 instructions: 25500143 cycles: 5107624 heartbeat IPC: 4.999 cumulative IPC: 4.993 (Simulation time: 00 hr 01 min 32 sec)
Heartbeat CPU 0 instructions: 26000146 cycles: 5207617 heartbeat IPC: 5 cumulative IPC: 4.993 (Simulation time: 00 hr 01 min 34 sec)
Heartbeat CPU 0 instructions: 26500152 cycles: 5307617 heartbeat IPC: 5 cumulative IPC: 4.993 (Simulation time: 00 hr 01 min 36 sec)
Heartbeat CPU 0 instructions: 27000157 cycles: 5407633 heartbeat IPC: 4.999 cumulative IPC: 4.993 (Simulation time: 00 hr 01 min 38 sec)
Heartbeat CPU 0 instructions: 27500157 cycles: 5507740 heartbeat IPC: 4.995 cumulative IPC: 4.993 (Simulation time: 00 hr 01 min 39 sec)
Heartbeat CPU 0 instructions: 28000158 cycles: 5607744 heartbeat IPC: 5 cumulative IPC: 4.993 (Simulation time: 00 hr 01 min 41 sec)
Heartbeat CPU 0 instructions: 28500158 cycles: 5707849 heartbeat IPC: 4.995 cumulative IPC: 4.993 (Simulation time: 00 hr 01 min 43 sec)
Heartbeat CPU 0 instructions: 29000163 cycles: 5807852 heartbeat IPC: 5 cumulative IPC: 4.993 (Simulation time: 00 hr 01 min 45 sec)
Heartbeat CPU 0 instructions: 29500166 cycles: 5907854 heartbeat IPC: 5 cumulative IPC: 4.993 (Simulation time: 00 hr 01 min 47 sec)
Heartbeat CPU 0 instructions: 30000166 cycles: 6007842 heartbeat IPC: 5.001 cumulative IPC: 4.994 (Simulation time: 00 hr 01 min 49 sec)
Heartbeat CPU 0 instructions: 30500168 cycles: 6107849 heartbeat IPC: 5 cumulative IPC: 4.994 (Simulation time: 00 hr 01 min 50 sec)
Heartbeat CPU 0 instructions: 31000170 cycles: 6207952 heartbeat IPC: 4.995 cumulative IPC: 4.994 (Simulation time: 00 hr 01 min 52 sec)
Heartbeat CPU 0 instructions: 31500173 cycles: 6308076 heartbeat IPC: 4.994 cumulative IPC: 4.994 (Simulation time: 00 hr 01 min 54 sec)
Heartbeat CPU 0 instructions: 32000179 cycles: 6408061 heartbeat IPC: 5.001 cumulative IPC: 4.994 (Simulation time: 00 hr 01 min 56 sec)
Heartbeat CPU 0 instructions: 32500182 cycles: 6508078 heartbeat IPC: 4.999 cumulative IPC: 4.994 (Simulation time: 00 hr 01 min 58 sec)
Heartbeat CPU 0 instructions: 33000188 cycles: 6608075 heartbeat IPC: 5 cumulative IPC: 4.994 (Simulation time: 00 hr 01 min 59 sec)
Heartbeat CPU 0 instructions: 33500195 cycles: 6708064 heartbeat IPC: 5.001 cumulative IPC: 4.994 (Simulation time: 00 hr 02 min 01 sec)
Heartbeat CPU 0 instructions: 34000200 cycles: 6808184 heartbeat IPC: 4.994 cumulative IPC: 4.994 (Simulation time: 00 hr 02 min 03 sec)
Heartbeat CPU 0 instructions: 34500206 cycles: 6908184 heartbeat IPC: 5 cumulative IPC: 4.994 (Simulation time: 00 hr 02 min 05 sec)
Heartbeat CPU 0 instructions: 35000206 cycles: 7008513 heartbeat IPC: 4.984 cumulative IPC: 4.994 (Simulation time: 00 hr 02 min 07 sec)
Heartbeat CPU 0 instructions: 35500207 cycles: 7108525 heartbeat IPC: 4.999 cumulative IPC: 4.994 (Simulation time: 00 hr 02 min 08 sec)
Heartbeat CPU 0 instructions: 36000214 cycles: 7208527 heartbeat IPC: 5 cumulative IPC: 4.994 (Simulation time: 00 hr 02 min 10 sec)
Heartbeat CPU 0 instructions: 36500214 cycles: 7308516 heartbeat IPC: 5.001 cumulative IPC: 4.994 (Simulation time: 00 hr 02 min 12 sec)
Heartbeat CPU 0 instructions: 37000218 cycles: 7408625 heartbeat IPC: 4.995 cumulative IPC: 4.994 (Simulation time: 00 hr 02 min 14 sec)
Heartbeat CPU 0 instructions: 37500225 cycles: 7509438 heartbeat IPC: 4.96 cumulative IPC: 4.994 (Simulation time: 00 hr 02 min 16 sec)
Heartbeat CPU 0 instructions: 38000232 cycles: 7609548 heartbeat IPC: 4.995 cumulative IPC: 4.994 (Simulation time: 00 hr 02 min 17 sec)
Heartbeat CPU 0 instructions: 38500235 cycles: 7709548 heartbeat IPC: 5 cumulative IPC: 4.994 (Simulation time: 00 hr 02 min 19 sec)
Heartbeat CPU 0 instructions: 39000238 cycles: 7809548 heartbeat IPC: 5 cumulative IPC: 4.994 (Simulation time: 00 hr 02 min 21 sec)
Heartbeat CPU 0 instructions: 39500239 cycles: 7909549 heartbeat IPC: 5 cumulative IPC: 4.994 (Simulation time: 00 hr 02 min 23 sec)
Heartbeat CPU 0 instructions: 40000239 cycles: 8009545 heartbeat IPC: 5 cumulative IPC: 4.994 (Simulation time: 00 hr 02 min 25 sec)
Heartbeat CPU 0 instructions: 40500246 cycles: 8109549 heartbeat IPC: 5 cumulative IPC: 4.994 (Simulation time: 00 hr 02 min 27 sec)
Heartbeat CPU 0 instructions: 41000251 cycles: 8209535 heartbeat IPC: 5.001 cumulative IPC: 4.994 (Simulation time: 00 hr 02 min 28 sec)
Heartbeat CPU 0 instructions: 41500255 cycles: 8309660 heartbeat IPC: 4.994 cumulative IPC: 4.994 (Simulation time: 00 hr 02 min 30 sec)
Heartbeat CPU 0 instructions: 42000255 cycles: 8409664 heartbeat IPC: 5 cumulative IPC: 4.994 (Simulation time: 00 hr 02 min 32 sec)
Heartbeat CPU 0 instructions: 42500257 cycles: 8509656 heartbeat IPC: 5 cumulative IPC: 4.994 (Simulation time: 00 hr 02 min 34 sec)
Heartbeat CPU 0 instructions: 43000257 cycles: 8609658 heartbeat IPC: 5 cumulative IPC: 4.994 (Simulation time: 00 hr 02 min 36 sec)
Heartbeat CPU 0 instructions: 43500257 cycles: 8709674 heartbeat IPC: 4.999 cumulative IPC: 4.994 (Simulation time: 00 hr 02 min 37 sec)
Heartbeat CPU 0 instructions: 44000259 cycles: 8809662 heartbeat IPC: 5.001 cumulative IPC: 4.995 (Simulation time: 00 hr 02 min 39 sec)
Heartbeat CPU 0 instructions: 44500260 cycles: 8909976 heartbeat IPC: 4.984 cumulative IPC: 4.994 (Simulation time: 00 hr 02 min 41 sec)
Heartbeat CPU 0 instructions: 45000263 cycles: 9009995 heartbeat IPC: 4.999 cumulative IPC: 4.994 (Simulation time: 00 hr 02 min 43 sec)
Heartbeat CPU 0 instructions: 45500270 cycles: 9110094 heartbeat IPC: 4.995 cumulative IPC: 4.994 (Simulation time: 00 hr 02 min 45 sec)
Heartbeat CPU 0 instructions: 46000274 cycles: 9210230 heartbeat IPC: 4.993 cumulative IPC: 4.994 (Simulation time: 00 hr 02 min 46 sec)
Heartbeat CPU 0 instructions: 46500274 cycles: 9310210 heartbeat IPC: 5.001 cumulative IPC: 4.995 (Simulation time: 00 hr 02 min 48 sec)
Heartbeat CPU 0 instructions: 47000274 cycles: 9410217 heartbeat IPC: 5 cumulative IPC: 4.995 (Simulation time: 00 hr 02 min 50 sec)
Heartbeat CPU 0 instructions: 47500280 cycles: 9510222 heartbeat IPC: 5 cumulative IPC: 4.995 (Simulation time: 00 hr 02 min 52 sec)
Heartbeat CPU 0 instructions: 48000282 cycles: 9610215 heartbeat IPC: 5 cumulative IPC: 4.995 (Simulation time: 00 hr 02 min 54 sec)
Heartbeat CPU 0 instructions: 48500284 cycles: 9710200 heartbeat IPC: 5.001 cumulative IPC: 4.995 (Simulation time: 00 hr 02 min 55 sec)
Heartbeat CPU 0 instructions: 49000287 cycles: 9810539 heartbeat IPC: 4.983 cumulative IPC: 4.995 (Simulation time: 00 hr 02 min 57 sec)
Heartbeat CPU 0 instructions: 49500294 cycles: 9910548 heartbeat IPC: 5 cumulative IPC: 4.995 (Simulation time: 00 hr 02 min 59 sec)
Warmup halting CPU 0 at instruction 50000006 cycle 10010489 for remainder of phase
Warmup finished CPU 0 instructions: 50000006 cycles: 10010489 cumulative IPC: 4.995 (Simulation time: 00 hr 03 min 01 sec)
Warmup complete CPU 0 instructions: 50000006 cycles: 10010489 cumulative IPC: 4.995 (Simulation time: 00 hr 03 min 01 sec)
Heartbeat CPU 0 instructions: 50000300 cycles: 10010563 heartbeat IPC: 4.999 cumulative IPC: 3.973 (Simulation time: 00 hr 03 min 01 sec)
Heartbeat CPU 0 instructions: 50500302 cycles: 10157501 heartbeat IPC: 3.403 cumulative IPC: 3.403 (Simulation time: 00 hr 03 min 04 sec)
Heartbeat CPU 0 instructions: 51000304 cycles: 10310769 heartbeat IPC: 3.262 cumulative IPC: 3.331 (Simulation time: 00 hr 03 min 08 sec)
Heartbeat CPU 0 instructions: 51500310 cycles: 10462260 heartbeat IPC: 3.301 cumulative IPC: 3.321 (Simulation time: 00 hr 03 min 12 sec)
Heartbeat CPU 0 instructions: 52000315 cycles: 10632302 heartbeat IPC: 2.94 cumulative IPC: 3.217 (Simulation time: 00 hr 03 min 16 sec)
Heartbeat CPU 0 instructions: 52500315 cycles: 10783042 heartbeat IPC: 3.317 cumulative IPC: 3.236 (Simulation time: 00 hr 03 min 19 sec)
Heartbeat CPU 0 instructions: 53000318 cycles: 10949424 heartbeat IPC: 3.005 cumulative IPC: 3.195 (Simulation time: 00 hr 03 min 23 sec)
Heartbeat CPU 0 instructions: 53500325 cycles: 11111388 heartbeat IPC: 3.087 cumulative IPC: 3.18 (Simulation time: 00 hr 03 min 27 sec)
Heartbeat CPU 0 instructions: 54000327 cycles: 11276851 heartbeat IPC: 3.022 cumulative IPC: 3.159 (Simulation time: 00 hr 03 min 31 sec)
Heartbeat CPU 0 instructions: 54500328 cycles: 11438261 heartbeat IPC: 3.098 cumulative IPC: 3.152 (Simulation time: 00 hr 03 min 35 sec)
Heartbeat CPU 0 instructions: 55000332 cycles: 11595963 heartbeat IPC: 3.171 cumulative IPC: 3.154 (Simulation time: 00 hr 03 min 39 sec)
Heartbeat CPU 0 instructions: 55500335 cycles: 11757628 heartbeat IPC: 3.093 cumulative IPC: 3.148 (Simulation time: 00 hr 03 min 42 sec)
Heartbeat CPU 0 instructions: 56000335 cycles: 11911582 heartbeat IPC: 3.248 cumulative IPC: 3.156 (Simulation time: 00 hr 03 min 46 sec)
Heartbeat CPU 0 instructions: 56500337 cycles: 12066076 heartbeat IPC: 3.236 cumulative IPC: 3.162 (Simulation time: 00 hr 03 min 50 sec)
Heartbeat CPU 0 instructions: 57000337 cycles: 12229272 heartbeat IPC: 3.064 cumulative IPC: 3.155 (Simulation time: 00 hr 03 min 54 sec)
Heartbeat CPU 0 instructions: 57500342 cycles: 12399425 heartbeat IPC: 2.939 cumulative IPC: 3.14 (Simulation time: 00 hr 03 min 58 sec)
Heartbeat CPU 0 instructions: 58000344 cycles: 12566776 heartbeat IPC: 2.988 cumulative IPC: 3.13 (Simulation time: 00 hr 04 min 02 sec)
Heartbeat CPU 0 instructions: 58500351 cycles: 12732544 heartbeat IPC: 3.016 cumulative IPC: 3.123 (Simulation time: 00 hr 04 min 06 sec)
Heartbeat CPU 0 instructions: 59000354 cycles: 12894196 heartbeat IPC: 3.093 cumulative IPC: 3.121 (Simulation time: 00 hr 04 min 10 sec)
Heartbeat CPU 0 instructions: 59500354 cycles: 13055678 heartbeat IPC: 3.096 cumulative IPC: 3.12 (Simulation time: 00 hr 04 min 14 sec)
Heartbeat CPU 0 instructions: 60000357 cycles: 13214599 heartbeat IPC: 3.146 cumulative IPC: 3.121 (Simulation time: 00 hr 04 min 17 sec)
Heartbeat CPU 0 instructions: 60500362 cycles: 13373531 heartbeat IPC: 3.146 cumulative IPC: 3.122 (Simulation time: 00 hr 04 min 21 sec)
Heartbeat CPU 0 instructions: 61000363 cycles: 13534910 heartbeat IPC: 3.098 cumulative IPC: 3.121 (Simulation time: 00 hr 04 min 25 sec)
Heartbeat CPU 0 instructions: 61500367 cycles: 13697067 heartbeat IPC: 3.083 cumulative IPC: 3.12 (Simulation time: 00 hr 04 min 29 sec)
Heartbeat CPU 0 instructions: 62000367 cycles: 13859852 heartbeat IPC: 3.072 cumulative IPC: 3.117 (Simulation time: 00 hr 04 min 33 sec)
Heartbeat CPU 0 instructions: 62500374 cycles: 14028990 heartbeat IPC: 2.956 cumulative IPC: 3.111 (Simulation time: 00 hr 04 min 37 sec)
Heartbeat CPU 0 instructions: 63000378 cycles: 14194216 heartbeat IPC: 3.026 cumulative IPC: 3.107 (Simulation time: 00 hr 04 min 41 sec)
Heartbeat CPU 0 instructions: 63500383 cycles: 14351031 heartbeat IPC: 3.189 cumulative IPC: 3.11 (Simulation time: 00 hr 04 min 45 sec)
Heartbeat CPU 0 instructions: 64000385 cycles: 14507787 heartbeat IPC: 3.19 cumulative IPC: 3.113 (Simulation time: 00 hr 04 min 48 sec)
Heartbeat CPU 0 instructions: 64500392 cycles: 14672677 heartbeat IPC: 3.032 cumulative IPC: 3.11 (Simulation time: 00 hr 04 min 52 sec)
Heartbeat CPU 0 instructions: 65000394 cycles: 14824724 heartbeat IPC: 3.288 cumulative IPC: 3.116 (Simulation time: 00 hr 04 min 56 sec)
Heartbeat CPU 0 instructions: 65500398 cycles: 14985538 heartbeat IPC: 3.109 cumulative IPC: 3.116 (Simulation time: 00 hr 05 min 00 sec)
Heartbeat CPU 0 instructions: 66000403 cycles: 15151754 heartbeat IPC: 3.008 cumulative IPC: 3.112 (Simulation time: 00 hr 05 min 03 sec)
Heartbeat CPU 0 instructions: 66500409 cycles: 15314727 heartbeat IPC: 3.068 cumulative IPC: 3.111 (Simulation time: 00 hr 05 min 07 sec)
Heartbeat CPU 0 instructions: 67000415 cycles: 15479566 heartbeat IPC: 3.033 cumulative IPC: 3.108 (Simulation time: 00 hr 05 min 11 sec)
Heartbeat CPU 0 instructions: 67500421 cycles: 15646616 heartbeat IPC: 2.993 cumulative IPC: 3.105 (Simulation time: 00 hr 05 min 15 sec)
Heartbeat CPU 0 instructions: 68000423 cycles: 15812754 heartbeat IPC: 3.01 cumulative IPC: 3.102 (Simulation time: 00 hr 05 min 19 sec)
Heartbeat CPU 0 instructions: 68500425 cycles: 15981215 heartbeat IPC: 2.968 cumulative IPC: 3.099 (Simulation time: 00 hr 05 min 23 sec)
Heartbeat CPU 0 instructions: 69000430 cycles: 16138247 heartbeat IPC: 3.184 cumulative IPC: 3.101 (Simulation time: 00 hr 05 min 27 sec)
Heartbeat CPU 0 instructions: 69500435 cycles: 16295302 heartbeat IPC: 3.184 cumulative IPC: 3.103 (Simulation time: 00 hr 05 min 30 sec)
Heartbeat CPU 0 instructions: 70000439 cycles: 16454499 heartbeat IPC: 3.141 cumulative IPC: 3.104 (Simulation time: 00 hr 05 min 34 sec)
Heartbeat CPU 0 instructions: 70500443 cycles: 16615811 heartbeat IPC: 3.1 cumulative IPC: 3.104 (Simulation time: 00 hr 05 min 38 sec)
Heartbeat CPU 0 instructions: 71000443 cycles: 16776803 heartbeat IPC: 3.106 cumulative IPC: 3.104 (Simulation time: 00 hr 05 min 42 sec)
Heartbeat CPU 0 instructions: 71500448 cycles: 16940819 heartbeat IPC: 3.049 cumulative IPC: 3.102 (Simulation time: 00 hr 05 min 46 sec)
Heartbeat CPU 0 instructions: 72000451 cycles: 17103310 heartbeat IPC: 3.077 cumulative IPC: 3.102 (Simulation time: 00 hr 05 min 50 sec)
Heartbeat CPU 0 instructions: 72500451 cycles: 17261357 heartbeat IPC: 3.164 cumulative IPC: 3.103 (Simulation time: 00 hr 05 min 53 sec)
Heartbeat CPU 0 instructions: 73000451 cycles: 17420691 heartbeat IPC: 3.138 cumulative IPC: 3.104 (Simulation time: 00 hr 05 min 57 sec)
Heartbeat CPU 0 instructions: 73500451 cycles: 17577959 heartbeat IPC: 3.179 cumulative IPC: 3.105 (Simulation time: 00 hr 06 min 01 sec)
Heartbeat CPU 0 instructions: 74000452 cycles: 17732938 heartbeat IPC: 3.226 cumulative IPC: 3.108 (Simulation time: 00 hr 06 min 05 sec)
Heartbeat CPU 0 instructions: 74500454 cycles: 17888652 heartbeat IPC: 3.211 cumulative IPC: 3.11 (Simulation time: 00 hr 06 min 08 sec)
Heartbeat CPU 0 instructions: 75000456 cycles: 18043526 heartbeat IPC: 3.228 cumulative IPC: 3.112 (Simulation time: 00 hr 06 min 12 sec)
Heartbeat CPU 0 instructions: 75500456 cycles: 18210849 heartbeat IPC: 2.988 cumulative IPC: 3.11 (Simulation time: 00 hr 06 min 16 sec)
Heartbeat CPU 0 instructions: 76000462 cycles: 18378650 heartbeat IPC: 2.98 cumulative IPC: 3.107 (Simulation time: 00 hr 06 min 20 sec)
Heartbeat CPU 0 instructions: 76500462 cycles: 18544110 heartbeat IPC: 3.022 cumulative IPC: 3.105 (Simulation time: 00 hr 06 min 24 sec)
Heartbeat CPU 0 instructions: 77000468 cycles: 18695550 heartbeat IPC: 3.302 cumulative IPC: 3.109 (Simulation time: 00 hr 06 min 27 sec)
Heartbeat CPU 0 instructions: 77500471 cycles: 18858570 heartbeat IPC: 3.067 cumulative IPC: 3.108 (Simulation time: 00 hr 06 min 31 sec)
Heartbeat CPU 0 instructions: 78000474 cycles: 19009459 heartbeat IPC: 3.314 cumulative IPC: 3.112 (Simulation time: 00 hr 06 min 35 sec)
Heartbeat CPU 0 instructions: 78500476 cycles: 19172755 heartbeat IPC: 3.062 cumulative IPC: 3.111 (Simulation time: 00 hr 06 min 39 sec)
Heartbeat CPU 0 instructions: 79000480 cycles: 19328481 heartbeat IPC: 3.211 cumulative IPC: 3.112 (Simulation time: 00 hr 06 min 42 sec)
Heartbeat CPU 0 instructions: 79500483 cycles: 19491357 heartbeat IPC: 3.07 cumulative IPC: 3.112 (Simulation time: 00 hr 06 min 46 sec)
Heartbeat CPU 0 instructions: 80000488 cycles: 19659411 heartbeat IPC: 2.975 cumulative IPC: 3.109 (Simulation time: 00 hr 06 min 50 sec)
Heartbeat CPU 0 instructions: 80500491 cycles: 19821253 heartbeat IPC: 3.089 cumulative IPC: 3.109 (Simulation time: 00 hr 06 min 54 sec)
Heartbeat CPU 0 instructions: 81000497 cycles: 19981337 heartbeat IPC: 3.123 cumulative IPC: 3.109 (Simulation time: 00 hr 06 min 58 sec)
Heartbeat CPU 0 instructions: 81500498 cycles: 20144361 heartbeat IPC: 3.067 cumulative IPC: 3.108 (Simulation time: 00 hr 07 min 01 sec)
Heartbeat CPU 0 instructions: 82000500 cycles: 20305062 heartbeat IPC: 3.111 cumulative IPC: 3.108 (Simulation time: 00 hr 07 min 05 sec)
Heartbeat CPU 0 instructions: 82500500 cycles: 20476496 heartbeat IPC: 2.917 cumulative IPC: 3.105 (Simulation time: 00 hr 07 min 09 sec)
Heartbeat CPU 0 instructions: 83000503 cycles: 20633213 heartbeat IPC: 3.19 cumulative IPC: 3.107 (Simulation time: 00 hr 07 min 13 sec)
Heartbeat CPU 0 instructions: 83500508 cycles: 20789836 heartbeat IPC: 3.192 cumulative IPC: 3.108 (Simulation time: 00 hr 07 min 16 sec)
Heartbeat CPU 0 instructions: 84000513 cycles: 20951594 heartbeat IPC: 3.091 cumulative IPC: 3.108 (Simulation time: 00 hr 07 min 20 sec)
Heartbeat CPU 0 instructions: 84500516 cycles: 21110131 heartbeat IPC: 3.154 cumulative IPC: 3.108 (Simulation time: 00 hr 07 min 24 sec)
Heartbeat CPU 0 instructions: 85000516 cycles: 21268539 heartbeat IPC: 3.156 cumulative IPC: 3.109 (Simulation time: 00 hr 07 min 28 sec)
Heartbeat CPU 0 instructions: 85500521 cycles: 21432193 heartbeat IPC: 3.055 cumulative IPC: 3.108 (Simulation time: 00 hr 07 min 31 sec)
Heartbeat CPU 0 instructions: 86000521 cycles: 21593103 heartbeat IPC: 3.107 cumulative IPC: 3.108 (Simulation time: 00 hr 07 min 35 sec)
Heartbeat CPU 0 instructions: 86500528 cycles: 21756813 heartbeat IPC: 3.054 cumulative IPC: 3.107 (Simulation time: 00 hr 07 min 39 sec)
Heartbeat CPU 0 instructions: 87000529 cycles: 21917407 heartbeat IPC: 3.113 cumulative IPC: 3.107 (Simulation time: 00 hr 07 min 43 sec)
Heartbeat CPU 0 instructions: 87500532 cycles: 22069888 heartbeat IPC: 3.279 cumulative IPC: 3.11 (Simulation time: 00 hr 07 min 46 sec)
Heartbeat CPU 0 instructions: 88000532 cycles: 22233452 heartbeat IPC: 3.057 cumulative IPC: 3.109 (Simulation time: 00 hr 07 min 50 sec)
Heartbeat CPU 0 instructions: 88500537 cycles: 22391843 heartbeat IPC: 3.157 cumulative IPC: 3.11 (Simulation time: 00 hr 07 min 54 sec)
Heartbeat CPU 0 instructions: 89000537 cycles: 22554110 heartbeat IPC: 3.081 cumulative IPC: 3.109 (Simulation time: 00 hr 07 min 58 sec)
Heartbeat CPU 0 instructions: 89500541 cycles: 22717179 heartbeat IPC: 3.066 cumulative IPC: 3.109 (Simulation time: 00 hr 08 min 02 sec)
Heartbeat CPU 0 instructions: 90000544 cycles: 22878913 heartbeat IPC: 3.092 cumulative IPC: 3.108 (Simulation time: 00 hr 08 min 05 sec)
Heartbeat CPU 0 instructions: 90500545 cycles: 23037054 heartbeat IPC: 3.162 cumulative IPC: 3.109 (Simulation time: 00 hr 08 min 09 sec)
Heartbeat CPU 0 instructions: 91000552 cycles: 23202464 heartbeat IPC: 3.023 cumulative IPC: 3.108 (Simulation time: 00 hr 08 min 13 sec)
Heartbeat CPU 0 instructions: 91500553 cycles: 23363298 heartbeat IPC: 3.109 cumulative IPC: 3.108 (Simulation time: 00 hr 08 min 17 sec)
Heartbeat CPU 0 instructions: 92000553 cycles: 23514120 heartbeat IPC: 3.315 cumulative IPC: 3.11 (Simulation time: 00 hr 08 min 20 sec)
Heartbeat CPU 0 instructions: 92500556 cycles: 23670569 heartbeat IPC: 3.196 cumulative IPC: 3.111 (Simulation time: 00 hr 08 min 24 sec)
Heartbeat CPU 0 instructions: 93000557 cycles: 23835482 heartbeat IPC: 3.032 cumulative IPC: 3.11 (Simulation time: 00 hr 08 min 28 sec)
Heartbeat CPU 0 instructions: 93500557 cycles: 24009958 heartbeat IPC: 2.866 cumulative IPC: 3.107 (Simulation time: 00 hr 08 min 32 sec)
Heartbeat CPU 0 instructions: 94000563 cycles: 24176750 heartbeat IPC: 2.998 cumulative IPC: 3.106 (Simulation time: 00 hr 08 min 36 sec)
Heartbeat CPU 0 instructions: 94500563 cycles: 24339357 heartbeat IPC: 3.075 cumulative IPC: 3.106 (Simulation time: 00 hr 08 min 39 sec)
Heartbeat CPU 0 instructions: 95000567 cycles: 24493961 heartbeat IPC: 3.234 cumulative IPC: 3.107 (Simulation time: 00 hr 08 min 43 sec)
Heartbeat CPU 0 instructions: 95500573 cycles: 24649291 heartbeat IPC: 3.219 cumulative IPC: 3.108 (Simulation time: 00 hr 08 min 47 sec)
Heartbeat CPU 0 instructions: 96000575 cycles: 24811727 heartbeat IPC: 3.078 cumulative IPC: 3.108 (Simulation time: 00 hr 08 min 50 sec)
Heartbeat CPU 0 instructions: 96500575 cycles: 24974000 heartbeat IPC: 3.081 cumulative IPC: 3.108 (Simulation time: 00 hr 08 min 54 sec)
Heartbeat CPU 0 instructions: 97000575 cycles: 25143157 heartbeat IPC: 2.956 cumulative IPC: 3.106 (Simulation time: 00 hr 08 min 58 sec)
Heartbeat CPU 0 instructions: 97500580 cycles: 25304787 heartbeat IPC: 3.094 cumulative IPC: 3.106 (Simulation time: 00 hr 09 min 02 sec)
Heartbeat CPU 0 instructions: 98000581 cycles: 25469539 heartbeat IPC: 3.035 cumulative IPC: 3.105 (Simulation time: 00 hr 09 min 06 sec)
Heartbeat CPU 0 instructions: 98500581 cycles: 25633962 heartbeat IPC: 3.041 cumulative IPC: 3.104 (Simulation time: 00 hr 09 min 09 sec)
Heartbeat CPU 0 instructions: 99000587 cycles: 25799328 heartbeat IPC: 3.024 cumulative IPC: 3.103 (Simulation time: 00 hr 09 min 13 sec)
Heartbeat CPU 0 instructions: 99500590 cycles: 25956206 heartbeat IPC: 3.187 cumulative IPC: 3.104 (Simulation time: 00 hr 09 min 17 sec)
Heartbeat CPU 0 instructions: 100000591 cycles: 26105860 heartbeat IPC: 3.341 cumulative IPC: 3.107 (Simulation time: 00 hr 09 min 20 sec)
Heartbeat CPU 0 instructions: 100500591 cycles: 26273648 heartbeat IPC: 2.98 cumulative IPC: 3.105 (Simulation time: 00 hr 09 min 24 sec)
Heartbeat CPU 0 instructions: 101000591 cycles: 26433174 heartbeat IPC: 3.134 cumulative IPC: 3.105 (Simulation time: 00 hr 09 min 28 sec)
Heartbeat CPU 0 instructions: 101500596 cycles: 26589999 heartbeat IPC: 3.188 cumulative IPC: 3.106 (Simulation time: 00 hr 09 min 31 sec)
Heartbeat CPU 0 instructions: 102000601 cycles: 26769242 heartbeat IPC: 2.79 cumulative IPC: 3.103 (Simulation time: 00 hr 09 min 35 sec)
Heartbeat CPU 0 instructions: 102500602 cycles: 26936304 heartbeat IPC: 2.993 cumulative IPC: 3.102 (Simulation time: 00 hr 09 min 39 sec)
Heartbeat CPU 0 instructions: 103000602 cycles: 27093387 heartbeat IPC: 3.183 cumulative IPC: 3.103 (Simulation time: 00 hr 09 min 43 sec)
Heartbeat CPU 0 instructions: 103500608 cycles: 27258911 heartbeat IPC: 3.021 cumulative IPC: 3.102 (Simulation time: 00 hr 09 min 47 sec)
Heartbeat CPU 0 instructions: 104000608 cycles: 27421469 heartbeat IPC: 3.076 cumulative IPC: 3.102 (Simulation time: 00 hr 09 min 50 sec)
Heartbeat CPU 0 instructions: 104500614 cycles: 27572742 heartbeat IPC: 3.305 cumulative IPC: 3.103 (Simulation time: 00 hr 09 min 54 sec)
Heartbeat CPU 0 instructions: 105000621 cycles: 27731403 heartbeat IPC: 3.151 cumulative IPC: 3.104 (Simulation time: 00 hr 09 min 58 sec)
Heartbeat CPU 0 instructions: 105500622 cycles: 27886301 heartbeat IPC: 3.228 cumulative IPC: 3.105 (Simulation time: 00 hr 10 min 01 sec)
Heartbeat CPU 0 instructions: 106000622 cycles: 28052556 heartbeat IPC: 3.007 cumulative IPC: 3.104 (Simulation time: 00 hr 10 min 05 sec)
Heartbeat CPU 0 instructions: 106500628 cycles: 28215940 heartbeat IPC: 3.06 cumulative IPC: 3.104 (Simulation time: 00 hr 10 min 09 sec)
Heartbeat CPU 0 instructions: 107000634 cycles: 28371304 heartbeat IPC: 3.218 cumulative IPC: 3.104 (Simulation time: 00 hr 10 min 12 sec)
Heartbeat CPU 0 instructions: 107500637 cycles: 28526313 heartbeat IPC: 3.226 cumulative IPC: 3.105 (Simulation time: 00 hr 10 min 16 sec)
Heartbeat CPU 0 instructions: 108000644 cycles: 28681107 heartbeat IPC: 3.23 cumulative IPC: 3.107 (Simulation time: 00 hr 10 min 19 sec)
Heartbeat CPU 0 instructions: 108500646 cycles: 28843512 heartbeat IPC: 3.079 cumulative IPC: 3.106 (Simulation time: 00 hr 10 min 23 sec)
Heartbeat CPU 0 instructions: 109000652 cycles: 29004201 heartbeat IPC: 3.112 cumulative IPC: 3.106 (Simulation time: 00 hr 10 min 27 sec)
Heartbeat CPU 0 instructions: 109500652 cycles: 29161441 heartbeat IPC: 3.18 cumulative IPC: 3.107 (Simulation time: 00 hr 10 min 31 sec)
Heartbeat CPU 0 instructions: 110000654 cycles: 29327032 heartbeat IPC: 3.019 cumulative IPC: 3.106 (Simulation time: 00 hr 10 min 34 sec)
Heartbeat CPU 0 instructions: 110500660 cycles: 29484606 heartbeat IPC: 3.173 cumulative IPC: 3.107 (Simulation time: 00 hr 10 min 38 sec)
Heartbeat CPU 0 instructions: 111000660 cycles: 29641380 heartbeat IPC: 3.189 cumulative IPC: 3.107 (Simulation time: 00 hr 10 min 41 sec)
Heartbeat CPU 0 instructions: 111500663 cycles: 29805042 heartbeat IPC: 3.055 cumulative IPC: 3.107 (Simulation time: 00 hr 10 min 45 sec)
Heartbeat CPU 0 instructions: 112000670 cycles: 29960797 heartbeat IPC: 3.21 cumulative IPC: 3.108 (Simulation time: 00 hr 10 min 49 sec)
Heartbeat CPU 0 instructions: 112500677 cycles: 30117397 heartbeat IPC: 3.193 cumulative IPC: 3.108 (Simulation time: 00 hr 10 min 52 sec)
Heartbeat CPU 0 instructions: 113000684 cycles: 30282805 heartbeat IPC: 3.023 cumulative IPC: 3.108 (Simulation time: 00 hr 10 min 56 sec)
Heartbeat CPU 0 instructions: 113500686 cycles: 30444659 heartbeat IPC: 3.089 cumulative IPC: 3.108 (Simulation time: 00 hr 11 min 00 sec)
Heartbeat CPU 0 instructions: 114000692 cycles: 30606695 heartbeat IPC: 3.086 cumulative IPC: 3.107 (Simulation time: 00 hr 11 min 04 sec)
Heartbeat CPU 0 instructions: 114500693 cycles: 30766291 heartbeat IPC: 3.133 cumulative IPC: 3.108 (Simulation time: 00 hr 11 min 07 sec)
Heartbeat CPU 0 instructions: 115000697 cycles: 30923811 heartbeat IPC: 3.174 cumulative IPC: 3.108 (Simulation time: 00 hr 11 min 11 sec)
Heartbeat CPU 0 instructions: 115500704 cycles: 31084464 heartbeat IPC: 3.112 cumulative IPC: 3.108 (Simulation time: 00 hr 11 min 14 sec)
Heartbeat CPU 0 instructions: 116000706 cycles: 31253011 heartbeat IPC: 2.967 cumulative IPC: 3.107 (Simulation time: 00 hr 11 min 18 sec)
Heartbeat CPU 0 instructions: 116500707 cycles: 31413208 heartbeat IPC: 3.121 cumulative IPC: 3.107 (Simulation time: 00 hr 11 min 22 sec)
Heartbeat CPU 0 instructions: 117000713 cycles: 31575730 heartbeat IPC: 3.077 cumulative IPC: 3.107 (Simulation time: 00 hr 11 min 26 sec)
Heartbeat CPU 0 instructions: 117500718 cycles: 31741368 heartbeat IPC: 3.019 cumulative IPC: 3.106 (Simulation time: 00 hr 11 min 30 sec)
Heartbeat CPU 0 instructions: 118000718 cycles: 31906998 heartbeat IPC: 3.019 cumulative IPC: 3.106 (Simulation time: 00 hr 11 min 33 sec)
Heartbeat CPU 0 instructions: 118500725 cycles: 32063281 heartbeat IPC: 3.199 cumulative IPC: 3.106 (Simulation time: 00 hr 11 min 37 sec)
Heartbeat CPU 0 instructions: 119000730 cycles: 32232394 heartbeat IPC: 2.957 cumulative IPC: 3.105 (Simulation time: 00 hr 11 min 41 sec)
Heartbeat CPU 0 instructions: 119500730 cycles: 32391224 heartbeat IPC: 3.148 cumulative IPC: 3.105 (Simulation time: 00 hr 11 min 44 sec)
Heartbeat CPU 0 instructions: 120000732 cycles: 32551609 heartbeat IPC: 3.118 cumulative IPC: 3.105 (Simulation time: 00 hr 11 min 48 sec)
Heartbeat CPU 0 instructions: 120500738 cycles: 32715449 heartbeat IPC: 3.052 cumulative IPC: 3.105 (Simulation time: 00 hr 11 min 52 sec)
Heartbeat CPU 0 instructions: 121000743 cycles: 32878222 heartbeat IPC: 3.072 cumulative IPC: 3.105 (Simulation time: 00 hr 11 min 55 sec)
Heartbeat CPU 0 instructions: 121500743 cycles: 33037101 heartbeat IPC: 3.147 cumulative IPC: 3.105 (Simulation time: 00 hr 11 min 59 sec)
Heartbeat CPU 0 instructions: 122000750 cycles: 33195528 heartbeat IPC: 3.156 cumulative IPC: 3.105 (Simulation time: 00 hr 12 min 03 sec)
Heartbeat CPU 0 instructions: 122500757 cycles: 33359241 heartbeat IPC: 3.054 cumulative IPC: 3.105 (Simulation time: 00 hr 12 min 06 sec)
Heartbeat CPU 0 instructions: 123000758 cycles: 33524159 heartbeat IPC: 3.032 cumulative IPC: 3.105 (Simulation time: 00 hr 12 min 10 sec)
Heartbeat CPU 0 instructions: 123500762 cycles: 33681533 heartbeat IPC: 3.177 cumulative IPC: 3.105 (Simulation time: 00 hr 12 min 14 sec)
Heartbeat CPU 0 instructions: 124000764 cycles: 33838954 heartbeat IPC: 3.176 cumulative IPC: 3.106 (Simulation time: 00 hr 12 min 17 sec)
Heartbeat CPU 0 instructions: 124500767 cycles: 34000083 heartbeat IPC: 3.103 cumulative IPC: 3.106 (Simulation time: 00 hr 12 min 21 sec)
Heartbeat CPU 0 instructions: 125000769 cycles: 34159396 heartbeat IPC: 3.138 cumulative IPC: 3.106 (Simulation time: 00 hr 12 min 24 sec)
Heartbeat CPU 0 instructions: 125500775 cycles: 34326126 heartbeat IPC: 2.999 cumulative IPC: 3.105 (Simulation time: 00 hr 12 min 28 sec)
Heartbeat CPU 0 instructions: 126000779 cycles: 34479943 heartbeat IPC: 3.251 cumulative IPC: 3.106 (Simulation time: 00 hr 12 min 32 sec)
Heartbeat CPU 0 instructions: 126500784 cycles: 34644811 heartbeat IPC: 3.033 cumulative IPC: 3.105 (Simulation time: 00 hr 12 min 35 sec)
Heartbeat CPU 0 instructions: 127000791 cycles: 34805553 heartbeat IPC: 3.111 cumulative IPC: 3.105 (Simulation time: 00 hr 12 min 39 sec)
Heartbeat CPU 0 instructions: 127500795 cycles: 34968531 heartbeat IPC: 3.068 cumulative IPC: 3.105 (Simulation time: 00 hr 12 min 43 sec)
Heartbeat CPU 0 instructions: 128000798 cycles: 35121666 heartbeat IPC: 3.265 cumulative IPC: 3.106 (Simulation time: 00 hr 12 min 46 sec)
Heartbeat CPU 0 instructions: 128500802 cycles: 35282422 heartbeat IPC: 3.11 cumulative IPC: 3.106 (Simulation time: 00 hr 12 min 50 sec)
Heartbeat CPU 0 instructions: 129000803 cycles: 35440365 heartbeat IPC: 3.166 cumulative IPC: 3.107 (Simulation time: 00 hr 12 min 53 sec)
Heartbeat CPU 0 instructions: 129500803 cycles: 35604051 heartbeat IPC: 3.055 cumulative IPC: 3.106 (Simulation time: 00 hr 12 min 57 sec)
Heartbeat CPU 0 instructions: 130000806 cycles: 35764744 heartbeat IPC: 3.112 cumulative IPC: 3.106 (Simulation time: 00 hr 13 min 01 sec)
Heartbeat CPU 0 instructions: 130500807 cycles: 35928287 heartbeat IPC: 3.057 cumulative IPC: 3.106 (Simulation time: 00 hr 13 min 04 sec)
Heartbeat CPU 0 instructions: 131000809 cycles: 36085685 heartbeat IPC: 3.177 cumulative IPC: 3.106 (Simulation time: 00 hr 13 min 08 sec)
Heartbeat CPU 0 instructions: 131500813 cycles: 36248354 heartbeat IPC: 3.074 cumulative IPC: 3.106 (Simulation time: 00 hr 13 min 12 sec)
Heartbeat CPU 0 instructions: 132000819 cycles: 36408943 heartbeat IPC: 3.114 cumulative IPC: 3.106 (Simulation time: 00 hr 13 min 15 sec)
Heartbeat CPU 0 instructions: 132500826 cycles: 36569892 heartbeat IPC: 3.107 cumulative IPC: 3.106 (Simulation time: 00 hr 13 min 19 sec)
Heartbeat CPU 0 instructions: 133000826 cycles: 36736858 heartbeat IPC: 2.995 cumulative IPC: 3.106 (Simulation time: 00 hr 13 min 23 sec)
Heartbeat CPU 0 instructions: 133500827 cycles: 36896733 heartbeat IPC: 3.127 cumulative IPC: 3.106 (Simulation time: 00 hr 13 min 26 sec)
Heartbeat CPU 0 instructions: 134000831 cycles: 37054164 heartbeat IPC: 3.176 cumulative IPC: 3.106 (Simulation time: 00 hr 13 min 30 sec)
Heartbeat CPU 0 instructions: 134500831 cycles: 37213131 heartbeat IPC: 3.145 cumulative IPC: 3.106 (Simulation time: 00 hr 13 min 33 sec)
Heartbeat CPU 0 instructions: 135000831 cycles: 37376074 heartbeat IPC: 3.069 cumulative IPC: 3.106 (Simulation time: 00 hr 13 min 37 sec)
Heartbeat CPU 0 instructions: 135500836 cycles: 37550752 heartbeat IPC: 2.862 cumulative IPC: 3.105 (Simulation time: 00 hr 13 min 41 sec)
Heartbeat CPU 0 instructions: 136000843 cycles: 37708457 heartbeat IPC: 3.171 cumulative IPC: 3.105 (Simulation time: 00 hr 13 min 44 sec)
Heartbeat CPU 0 instructions: 136500844 cycles: 37868098 heartbeat IPC: 3.132 cumulative IPC: 3.105 (Simulation time: 00 hr 13 min 48 sec)
Heartbeat CPU 0 instructions: 137000850 cycles: 38027920 heartbeat IPC: 3.129 cumulative IPC: 3.105 (Simulation time: 00 hr 13 min 51 sec)
Heartbeat CPU 0 instructions: 137500855 cycles: 38194763 heartbeat IPC: 2.997 cumulative IPC: 3.105 (Simulation time: 00 hr 13 min 55 sec)
Heartbeat CPU 0 instructions: 138000859 cycles: 38358528 heartbeat IPC: 3.053 cumulative IPC: 3.104 (Simulation time: 00 hr 13 min 58 sec)
Heartbeat CPU 0 instructions: 138500862 cycles: 38512563 heartbeat IPC: 3.246 cumulative IPC: 3.105 (Simulation time: 00 hr 14 min 02 sec)
Heartbeat CPU 0 instructions: 139000862 cycles: 38675078 heartbeat IPC: 3.077 cumulative IPC: 3.105 (Simulation time: 00 hr 14 min 06 sec)
Heartbeat CPU 0 instructions: 139500865 cycles: 38838125 heartbeat IPC: 3.067 cumulative IPC: 3.105 (Simulation time: 00 hr 14 min 09 sec)
Heartbeat CPU 0 instructions: 140000871 cycles: 38993179 heartbeat IPC: 3.225 cumulative IPC: 3.105 (Simulation time: 00 hr 14 min 13 sec)
Heartbeat CPU 0 instructions: 140500871 cycles: 39150254 heartbeat IPC: 3.183 cumulative IPC: 3.106 (Simulation time: 00 hr 14 min 16 sec)
Heartbeat CPU 0 instructions: 141000874 cycles: 39308717 heartbeat IPC: 3.155 cumulative IPC: 3.106 (Simulation time: 00 hr 14 min 20 sec)
Heartbeat CPU 0 instructions: 141500874 cycles: 39472417 heartbeat IPC: 3.054 cumulative IPC: 3.106 (Simulation time: 00 hr 14 min 23 sec)
Heartbeat CPU 0 instructions: 142000880 cycles: 39635239 heartbeat IPC: 3.071 cumulative IPC: 3.106 (Simulation time: 00 hr 14 min 27 sec)
Heartbeat CPU 0 instructions: 142500887 cycles: 39797336 heartbeat IPC: 3.085 cumulative IPC: 3.105 (Simulation time: 00 hr 14 min 31 sec)
Heartbeat CPU 0 instructions: 143000888 cycles: 39958592 heartbeat IPC: 3.101 cumulative IPC: 3.105 (Simulation time: 00 hr 14 min 34 sec)
Heartbeat CPU 0 instructions: 143500888 cycles: 40118690 heartbeat IPC: 3.123 cumulative IPC: 3.105 (Simulation time: 00 hr 14 min 38 sec)
Heartbeat CPU 0 instructions: 144000894 cycles: 40282626 heartbeat IPC: 3.05 cumulative IPC: 3.105 (Simulation time: 00 hr 14 min 41 sec)
Heartbeat CPU 0 instructions: 144500900 cycles: 40434574 heartbeat IPC: 3.291 cumulative IPC: 3.106 (Simulation time: 00 hr 14 min 45 sec)
Heartbeat CPU 0 instructions: 145000900 cycles: 40594585 heartbeat IPC: 3.125 cumulative IPC: 3.106 (Simulation time: 00 hr 14 min 48 sec)
Heartbeat CPU 0 instructions: 145500901 cycles: 40762875 heartbeat IPC: 2.971 cumulative IPC: 3.105 (Simulation time: 00 hr 14 min 52 sec)
Heartbeat CPU 0 instructions: 146000904 cycles: 40921292 heartbeat IPC: 3.156 cumulative IPC: 3.106 (Simulation time: 00 hr 14 min 56 sec)
Heartbeat CPU 0 instructions: 146500904 cycles: 41078650 heartbeat IPC: 3.177 cumulative IPC: 3.106 (Simulation time: 00 hr 14 min 59 sec)
Heartbeat CPU 0 instructions: 147000904 cycles: 41245510 heartbeat IPC: 2.997 cumulative IPC: 3.106 (Simulation time: 00 hr 15 min 03 sec)
Heartbeat CPU 0 instructions: 147500904 cycles: 41406323 heartbeat IPC: 3.109 cumulative IPC: 3.106 (Simulation time: 00 hr 15 min 06 sec)
Heartbeat CPU 0 instructions: 148000910 cycles: 41575556 heartbeat IPC: 2.955 cumulative IPC: 3.105 (Simulation time: 00 hr 15 min 10 sec)
Heartbeat CPU 0 instructions: 148500917 cycles: 41737420 heartbeat IPC: 3.089 cumulative IPC: 3.105 (Simulation time: 00 hr 15 min 14 sec)
Heartbeat CPU 0 instructions: 149000923 cycles: 41900673 heartbeat IPC: 3.063 cumulative IPC: 3.104 (Simulation time: 00 hr 15 min 17 sec)
Heartbeat CPU 0 instructions: 149500923 cycles: 42058551 heartbeat IPC: 3.167 cumulative IPC: 3.105 (Simulation time: 00 hr 15 min 21 sec)
Heartbeat CPU 0 instructions: 150000924 cycles: 42218315 heartbeat IPC: 3.13 cumulative IPC: 3.105 (Simulation time: 00 hr 15 min 24 sec)
Heartbeat CPU 0 instructions: 150500930 cycles: 42378145 heartbeat IPC: 3.128 cumulative IPC: 3.105 (Simulation time: 00 hr 15 min 28 sec)
Heartbeat CPU 0 instructions: 151000930 cycles: 42544095 heartbeat IPC: 3.013 cumulative IPC: 3.105 (Simulation time: 00 hr 15 min 31 sec)
Heartbeat CPU 0 instructions: 151500937 cycles: 42697405 heartbeat IPC: 3.261 cumulative IPC: 3.105 (Simulation time: 00 hr 15 min 35 sec)
Heartbeat CPU 0 instructions: 152000940 cycles: 42867325 heartbeat IPC: 2.943 cumulative IPC: 3.104 (Simulation time: 00 hr 15 min 38 sec)
Heartbeat CPU 0 instructions: 152500944 cycles: 43031772 heartbeat IPC: 3.041 cumulative IPC: 3.104 (Simulation time: 00 hr 15 min 42 sec)
Heartbeat CPU 0 instructions: 153000949 cycles: 43197770 heartbeat IPC: 3.012 cumulative IPC: 3.104 (Simulation time: 00 hr 15 min 45 sec)
Heartbeat CPU 0 instructions: 153500952 cycles: 43371386 heartbeat IPC: 2.88 cumulative IPC: 3.102 (Simulation time: 00 hr 15 min 49 sec)
Heartbeat CPU 0 instructions: 154000953 cycles: 43533733 heartbeat IPC: 3.08 cumulative IPC: 3.102 (Simulation time: 00 hr 15 min 52 sec)
Heartbeat CPU 0 instructions: 154500953 cycles: 43693778 heartbeat IPC: 3.124 cumulative IPC: 3.102 (Simulation time: 00 hr 15 min 56 sec)
Heartbeat CPU 0 instructions: 155000959 cycles: 43858653 heartbeat IPC: 3.033 cumulative IPC: 3.102 (Simulation time: 00 hr 15 min 59 sec)
Heartbeat CPU 0 instructions: 155500963 cycles: 44028450 heartbeat IPC: 2.945 cumulative IPC: 3.101 (Simulation time: 00 hr 16 min 03 sec)
Heartbeat CPU 0 instructions: 156000963 cycles: 44184474 heartbeat IPC: 3.205 cumulative IPC: 3.102 (Simulation time: 00 hr 16 min 06 sec)
Heartbeat CPU 0 instructions: 156500964 cycles: 44336263 heartbeat IPC: 3.294 cumulative IPC: 3.103 (Simulation time: 00 hr 16 min 09 sec)
Heartbeat CPU 0 instructions: 157000967 cycles: 44500725 heartbeat IPC: 3.04 cumulative IPC: 3.102 (Simulation time: 00 hr 16 min 13 sec)
Heartbeat CPU 0 instructions: 157500969 cycles: 44660799 heartbeat IPC: 3.124 cumulative IPC: 3.102 (Simulation time: 00 hr 16 min 16 sec)
Heartbeat CPU 0 instructions: 158000974 cycles: 44821738 heartbeat IPC: 3.107 cumulative IPC: 3.102 (Simulation time: 00 hr 16 min 20 sec)
Heartbeat CPU 0 instructions: 158500976 cycles: 44983369 heartbeat IPC: 3.093 cumulative IPC: 3.102 (Simulation time: 00 hr 16 min 23 sec)
Heartbeat CPU 0 instructions: 159000976 cycles: 45144535 heartbeat IPC: 3.102 cumulative IPC: 3.102 (Simulation time: 00 hr 16 min 26 sec)
Heartbeat CPU 0 instructions: 159500981 cycles: 45309814 heartbeat IPC: 3.025 cumulative IPC: 3.102 (Simulation time: 00 hr 16 min 30 sec)
Heartbeat CPU 0 instructions: 160000983 cycles: 45478442 heartbeat IPC: 2.965 cumulative IPC: 3.101 (Simulation time: 00 hr 16 min 34 sec)
Heartbeat CPU 0 instructions: 160500989 cycles: 45642605 heartbeat IPC: 3.046 cumulative IPC: 3.101 (Simulation time: 00 hr 16 min 37 sec)
Heartbeat CPU 0 instructions: 161000989 cycles: 45801807 heartbeat IPC: 3.141 cumulative IPC: 3.101 (Simulation time: 00 hr 16 min 40 sec)
Heartbeat CPU 0 instructions: 161500989 cycles: 45962536 heartbeat IPC: 3.111 cumulative IPC: 3.101 (Simulation time: 00 hr 16 min 44 sec)
Heartbeat CPU 0 instructions: 162000995 cycles: 46129957 heartbeat IPC: 2.987 cumulative IPC: 3.101 (Simulation time: 00 hr 16 min 47 sec)
Heartbeat CPU 0 instructions: 162500996 cycles: 46292030 heartbeat IPC: 3.085 cumulative IPC: 3.101 (Simulation time: 00 hr 16 min 50 sec)
Heartbeat CPU 0 instructions: 163000996 cycles: 46457470 heartbeat IPC: 3.022 cumulative IPC: 3.1 (Simulation time: 00 hr 16 min 54 sec)
Heartbeat CPU 0 instructions: 163500996 cycles: 46616932 heartbeat IPC: 3.136 cumulative IPC: 3.101 (Simulation time: 00 hr 16 min 57 sec)
Heartbeat CPU 0 instructions: 164000999 cycles: 46776733 heartbeat IPC: 3.129 cumulative IPC: 3.101 (Simulation time: 00 hr 17 min 00 sec)
Heartbeat CPU 0 instructions: 164500999 cycles: 46942220 heartbeat IPC: 3.021 cumulative IPC: 3.1 (Simulation time: 00 hr 17 min 04 sec)
Heartbeat CPU 0 instructions: 165001003 cycles: 47102121 heartbeat IPC: 3.127 cumulative IPC: 3.1 (Simulation time: 00 hr 17 min 07 sec)
Heartbeat CPU 0 instructions: 165501005 cycles: 47264192 heartbeat IPC: 3.085 cumulative IPC: 3.1 (Simulation time: 00 hr 17 min 11 sec)
Heartbeat CPU 0 instructions: 166001005 cycles: 47421097 heartbeat IPC: 3.187 cumulative IPC: 3.101 (Simulation time: 00 hr 17 min 14 sec)
Heartbeat CPU 0 instructions: 166501008 cycles: 47592245 heartbeat IPC: 2.921 cumulative IPC: 3.1 (Simulation time: 00 hr 17 min 18 sec)
Heartbeat CPU 0 instructions: 167001014 cycles: 47754238 heartbeat IPC: 3.087 cumulative IPC: 3.1 (Simulation time: 00 hr 17 min 21 sec)
Heartbeat CPU 0 instructions: 167501017 cycles: 47909944 heartbeat IPC: 3.211 cumulative IPC: 3.1 (Simulation time: 00 hr 17 min 24 sec)
Heartbeat CPU 0 instructions: 168001017 cycles: 48072053 heartbeat IPC: 3.084 cumulative IPC: 3.1 (Simulation time: 00 hr 17 min 28 sec)
Heartbeat CPU 0 instructions: 168501020 cycles: 48225378 heartbeat IPC: 3.261 cumulative IPC: 3.101 (Simulation time: 00 hr 17 min 31 sec)
Heartbeat CPU 0 instructions: 169001022 cycles: 48404030 heartbeat IPC: 2.799 cumulative IPC: 3.1 (Simulation time: 00 hr 17 min 35 sec)
Heartbeat CPU 0 instructions: 169501025 cycles: 48574440 heartbeat IPC: 2.934 cumulative IPC: 3.099 (Simulation time: 00 hr 17 min 38 sec)
Heartbeat CPU 0 instructions: 170001026 cycles: 48741910 heartbeat IPC: 2.986 cumulative IPC: 3.098 (Simulation time: 00 hr 17 min 42 sec)
Heartbeat CPU 0 instructions: 170501030 cycles: 48902646 heartbeat IPC: 3.111 cumulative IPC: 3.098 (Simulation time: 00 hr 17 min 45 sec)
Heartbeat CPU 0 instructions: 171001032 cycles: 49065655 heartbeat IPC: 3.067 cumulative IPC: 3.098 (Simulation time: 00 hr 17 min 49 sec)
Heartbeat CPU 0 instructions: 171501038 cycles: 49228627 heartbeat IPC: 3.068 cumulative IPC: 3.098 (Simulation time: 00 hr 17 min 52 sec)
Heartbeat CPU 0 instructions: 172001038 cycles: 49393598 heartbeat IPC: 3.031 cumulative IPC: 3.098 (Simulation time: 00 hr 17 min 56 sec)
Heartbeat CPU 0 instructions: 172501038 cycles: 49557277 heartbeat IPC: 3.055 cumulative IPC: 3.098 (Simulation time: 00 hr 17 min 59 sec)
Heartbeat CPU 0 instructions: 173001038 cycles: 49713833 heartbeat IPC: 3.194 cumulative IPC: 3.098 (Simulation time: 00 hr 18 min 03 sec)
Heartbeat CPU 0 instructions: 173501045 cycles: 49877344 heartbeat IPC: 3.058 cumulative IPC: 3.098 (Simulation time: 00 hr 18 min 06 sec)
Heartbeat CPU 0 instructions: 174001052 cycles: 50041309 heartbeat IPC: 3.049 cumulative IPC: 3.098 (Simulation time: 00 hr 18 min 09 sec)
Heartbeat CPU 0 instructions: 174501052 cycles: 50204562 heartbeat IPC: 3.063 cumulative IPC: 3.097 (Simulation time: 00 hr 18 min 13 sec)
Heartbeat CPU 0 instructions: 175001053 cycles: 50362188 heartbeat IPC: 3.172 cumulative IPC: 3.098 (Simulation time: 00 hr 18 min 16 sec)
Heartbeat CPU 0 instructions: 175501053 cycles: 50514268 heartbeat IPC: 3.288 cumulative IPC: 3.099 (Simulation time: 00 hr 18 min 19 sec)
Heartbeat CPU 0 instructions: 176001056 cycles: 50673285 heartbeat IPC: 3.144 cumulative IPC: 3.099 (Simulation time: 00 hr 18 min 23 sec)
Heartbeat CPU 0 instructions: 176501058 cycles: 50838632 heartbeat IPC: 3.024 cumulative IPC: 3.098 (Simulation time: 00 hr 18 min 26 sec)
Heartbeat CPU 0 instructions: 177001065 cycles: 50999580 heartbeat IPC: 3.107 cumulative IPC: 3.098 (Simulation time: 00 hr 18 min 29 sec)
Heartbeat CPU 0 instructions: 177501068 cycles: 51159028 heartbeat IPC: 3.136 cumulative IPC: 3.099 (Simulation time: 00 hr 18 min 33 sec)
Heartbeat CPU 0 instructions: 178001068 cycles: 51322606 heartbeat IPC: 3.057 cumulative IPC: 3.098 (Simulation time: 00 hr 18 min 36 sec)
Heartbeat CPU 0 instructions: 178501068 cycles: 51488445 heartbeat IPC: 3.015 cumulative IPC: 3.098 (Simulation time: 00 hr 18 min 39 sec)
Heartbeat CPU 0 instructions: 179001074 cycles: 51657902 heartbeat IPC: 2.951 cumulative IPC: 3.097 (Simulation time: 00 hr 18 min 43 sec)
Heartbeat CPU 0 instructions: 179501074 cycles: 51816748 heartbeat IPC: 3.148 cumulative IPC: 3.098 (Simulation time: 00 hr 18 min 46 sec)
Heartbeat CPU 0 instructions: 180001080 cycles: 51968043 heartbeat IPC: 3.305 cumulative IPC: 3.098 (Simulation time: 00 hr 18 min 49 sec)
Heartbeat CPU 0 instructions: 180501085 cycles: 52128700 heartbeat IPC: 3.112 cumulative IPC: 3.098 (Simulation time: 00 hr 18 min 53 sec)
Heartbeat CPU 0 instructions: 181001086 cycles: 52297423 heartbeat IPC: 2.963 cumulative IPC: 3.098 (Simulation time: 00 hr 18 min 56 sec)
Heartbeat CPU 0 instructions: 181501086 cycles: 52465530 heartbeat IPC: 2.974 cumulative IPC: 3.097 (Simulation time: 00 hr 19 min 00 sec)
Heartbeat CPU 0 instructions: 182001092 cycles: 52632999 heartbeat IPC: 2.986 cumulative IPC: 3.097 (Simulation time: 00 hr 19 min 03 sec)
Heartbeat CPU 0 instructions: 182501092 cycles: 52790975 heartbeat IPC: 3.165 cumulative IPC: 3.097 (Simulation time: 00 hr 19 min 06 sec)
Heartbeat CPU 0 instructions: 183001093 cycles: 52943025 heartbeat IPC: 3.288 cumulative IPC: 3.098 (Simulation time: 00 hr 19 min 10 sec)
Heartbeat CPU 0 instructions: 183501094 cycles: 53098354 heartbeat IPC: 3.219 cumulative IPC: 3.098 (Simulation time: 00 hr 19 min 13 sec)
Heartbeat CPU 0 instructions: 184001098 cycles: 53263168 heartbeat IPC: 3.034 cumulative IPC: 3.098 (Simulation time: 00 hr 19 min 16 sec)
Heartbeat CPU 0 instructions: 184501098 cycles: 53419440 heartbeat IPC: 3.2 cumulative IPC: 3.098 (Simulation time: 00 hr 19 min 20 sec)
Heartbeat CPU 0 instructions: 185001101 cycles: 53585069 heartbeat IPC: 3.019 cumulative IPC: 3.098 (Simulation time: 00 hr 19 min 23 sec)
Heartbeat CPU 0 instructions: 185501106 cycles: 53760180 heartbeat IPC: 2.855 cumulative IPC: 3.097 (Simulation time: 00 hr 19 min 27 sec)
Heartbeat CPU 0 instructions: 186001111 cycles: 53918616 heartbeat IPC: 3.156 cumulative IPC: 3.097 (Simulation time: 00 hr 19 min 30 sec)
Heartbeat CPU 0 instructions: 186501115 cycles: 54081556 heartbeat IPC: 3.069 cumulative IPC: 3.097 (Simulation time: 00 hr 19 min 33 sec)
Heartbeat CPU 0 instructions: 187001115 cycles: 54246640 heartbeat IPC: 3.029 cumulative IPC: 3.097 (Simulation time: 00 hr 19 min 37 sec)
Heartbeat CPU 0 instructions: 187501121 cycles: 54408049 heartbeat IPC: 3.098 cumulative IPC: 3.097 (Simulation time: 00 hr 19 min 40 sec)
Heartbeat CPU 0 instructions: 188001128 cycles: 54570253 heartbeat IPC: 3.083 cumulative IPC: 3.097 (Simulation time: 00 hr 19 min 44 sec)
Heartbeat CPU 0 instructions: 188501131 cycles: 54738646 heartbeat IPC: 2.969 cumulative IPC: 3.097 (Simulation time: 00 hr 19 min 47 sec)
Heartbeat CPU 0 instructions: 189001135 cycles: 54912092 heartbeat IPC: 2.883 cumulative IPC: 3.096 (Simulation time: 00 hr 19 min 51 sec)
Heartbeat CPU 0 instructions: 189501138 cycles: 55074244 heartbeat IPC: 3.084 cumulative IPC: 3.096 (Simulation time: 00 hr 19 min 54 sec)
Heartbeat CPU 0 instructions: 190001141 cycles: 55239308 heartbeat IPC: 3.029 cumulative IPC: 3.095 (Simulation time: 00 hr 19 min 57 sec)
Heartbeat CPU 0 instructions: 190501142 cycles: 55401592 heartbeat IPC: 3.081 cumulative IPC: 3.095 (Simulation time: 00 hr 20 min 01 sec)
Heartbeat CPU 0 instructions: 191001142 cycles: 55573595 heartbeat IPC: 2.907 cumulative IPC: 3.095 (Simulation time: 00 hr 20 min 04 sec)
Heartbeat CPU 0 instructions: 191501144 cycles: 55728474 heartbeat IPC: 3.228 cumulative IPC: 3.095 (Simulation time: 00 hr 20 min 07 sec)
Heartbeat CPU 0 instructions: 192001147 cycles: 55885059 heartbeat IPC: 3.193 cumulative IPC: 3.095 (Simulation time: 00 hr 20 min 11 sec)
Heartbeat CPU 0 instructions: 192501151 cycles: 56048537 heartbeat IPC: 3.059 cumulative IPC: 3.095 (Simulation time: 00 hr 20 min 14 sec)
Heartbeat CPU 0 instructions: 193001158 cycles: 56207178 heartbeat IPC: 3.152 cumulative IPC: 3.095 (Simulation time: 00 hr 20 min 17 sec)
Heartbeat CPU 0 instructions: 193501165 cycles: 56365918 heartbeat IPC: 3.15 cumulative IPC: 3.096 (Simulation time: 00 hr 20 min 21 sec)
Heartbeat CPU 0 instructions: 194001166 cycles: 56527249 heartbeat IPC: 3.099 cumulative IPC: 3.096 (Simulation time: 00 hr 20 min 24 sec)
Heartbeat CPU 0 instructions: 194501173 cycles: 56687650 heartbeat IPC: 3.117 cumulative IPC: 3.096 (Simulation time: 00 hr 20 min 27 sec)
Heartbeat CPU 0 instructions: 195001174 cycles: 56859197 heartbeat IPC: 2.915 cumulative IPC: 3.095 (Simulation time: 00 hr 20 min 31 sec)
Heartbeat CPU 0 instructions: 195501176 cycles: 57026732 heartbeat IPC: 2.984 cumulative IPC: 3.095 (Simulation time: 00 hr 20 min 34 sec)
Heartbeat CPU 0 instructions: 196001182 cycles: 57186092 heartbeat IPC: 3.138 cumulative IPC: 3.095 (Simulation time: 00 hr 20 min 38 sec)
Heartbeat CPU 0 instructions: 196501185 cycles: 57347378 heartbeat IPC: 3.1 cumulative IPC: 3.095 (Simulation time: 00 hr 20 min 41 sec)
Heartbeat CPU 0 instructions: 197001185 cycles: 57515025 heartbeat IPC: 2.982 cumulative IPC: 3.094 (Simulation time: 00 hr 20 min 44 sec)
Heartbeat CPU 0 instructions: 197501191 cycles: 57682486 heartbeat IPC: 2.986 cumulative IPC: 3.094 (Simulation time: 00 hr 20 min 48 sec)
Heartbeat CPU 0 instructions: 198001194 cycles: 57845876 heartbeat IPC: 3.06 cumulative IPC: 3.094 (Simulation time: 00 hr 20 min 51 sec)
Heartbeat CPU 0 instructions: 198501194 cycles: 58004949 heartbeat IPC: 3.143 cumulative IPC: 3.094 (Simulation time: 00 hr 20 min 54 sec)
Heartbeat CPU 0 instructions: 199001198 cycles: 58160861 heartbeat IPC: 3.207 cumulative IPC: 3.094 (Simulation time: 00 hr 20 min 58 sec)
Heartbeat CPU 0 instructions: 199501198 cycles: 58321964 heartbeat IPC: 3.104 cumulative IPC: 3.095 (Simulation time: 00 hr 21 min 01 sec)
Heartbeat CPU 0 instructions: 200001202 cycles: 58482145 heartbeat IPC: 3.121 cumulative IPC: 3.095 (Simulation time: 00 hr 21 min 04 sec)
Heartbeat CPU 0 instructions: 200501203 cycles: 58650451 heartbeat IPC: 2.971 cumulative IPC: 3.094 (Simulation time: 00 hr 21 min 08 sec)
Heartbeat CPU 0 instructions: 201001205 cycles: 58814055 heartbeat IPC: 3.056 cumulative IPC: 3.094 (Simulation time: 00 hr 21 min 11 sec)
Heartbeat CPU 0 instructions: 201501206 cycles: 58970701 heartbeat IPC: 3.192 cumulative IPC: 3.094 (Simulation time: 00 hr 21 min 15 sec)
Heartbeat CPU 0 instructions: 202001207 cycles: 59131232 heartbeat IPC: 3.115 cumulative IPC: 3.094 (Simulation time: 00 hr 21 min 18 sec)
Heartbeat CPU 0 instructions: 202501212 cycles: 59305358 heartbeat IPC: 2.872 cumulative IPC: 3.094 (Simulation time: 00 hr 21 min 21 sec)
Heartbeat CPU 0 instructions: 203001216 cycles: 59463436 heartbeat IPC: 3.163 cumulative IPC: 3.094 (Simulation time: 00 hr 21 min 25 sec)
Heartbeat CPU 0 instructions: 203501218 cycles: 59627295 heartbeat IPC: 3.051 cumulative IPC: 3.094 (Simulation time: 00 hr 21 min 28 sec)
Heartbeat CPU 0 instructions: 204001224 cycles: 59789379 heartbeat IPC: 3.085 cumulative IPC: 3.094 (Simulation time: 00 hr 21 min 31 sec)
Heartbeat CPU 0 instructions: 204501224 cycles: 59948332 heartbeat IPC: 3.146 cumulative IPC: 3.094 (Simulation time: 00 hr 21 min 35 sec)
Heartbeat CPU 0 instructions: 205001224 cycles: 60109948 heartbeat IPC: 3.094 cumulative IPC: 3.094 (Simulation time: 00 hr 21 min 38 sec)
Heartbeat CPU 0 instructions: 205501224 cycles: 60265478 heartbeat IPC: 3.215 cumulative IPC: 3.094 (Simulation time: 00 hr 21 min 41 sec)
Heartbeat CPU 0 instructions: 206001228 cycles: 60421139 heartbeat IPC: 3.212 cumulative IPC: 3.095 (Simulation time: 00 hr 21 min 44 sec)
Heartbeat CPU 0 instructions: 206501228 cycles: 60585196 heartbeat IPC: 3.048 cumulative IPC: 3.094 (Simulation time: 00 hr 21 min 48 sec)
Heartbeat CPU 0 instructions: 207001228 cycles: 60743864 heartbeat IPC: 3.151 cumulative IPC: 3.095 (Simulation time: 00 hr 21 min 51 sec)
Heartbeat CPU 0 instructions: 207501235 cycles: 60912735 heartbeat IPC: 2.961 cumulative IPC: 3.094 (Simulation time: 00 hr 21 min 54 sec)
Heartbeat CPU 0 instructions: 208001239 cycles: 61075127 heartbeat IPC: 3.079 cumulative IPC: 3.094 (Simulation time: 00 hr 21 min 58 sec)
Heartbeat CPU 0 instructions: 208501243 cycles: 61226835 heartbeat IPC: 3.296 cumulative IPC: 3.095 (Simulation time: 00 hr 22 min 01 sec)
Heartbeat CPU 0 instructions: 209001247 cycles: 61389184 heartbeat IPC: 3.08 cumulative IPC: 3.095 (Simulation time: 00 hr 22 min 04 sec)
Heartbeat CPU 0 instructions: 209501252 cycles: 61560102 heartbeat IPC: 2.925 cumulative IPC: 3.094 (Simulation time: 00 hr 22 min 08 sec)
Heartbeat CPU 0 instructions: 210001252 cycles: 61726686 heartbeat IPC: 3.001 cumulative IPC: 3.094 (Simulation time: 00 hr 22 min 11 sec)
Heartbeat CPU 0 instructions: 210501254 cycles: 61880050 heartbeat IPC: 3.26 cumulative IPC: 3.094 (Simulation time: 00 hr 22 min 14 sec)
Heartbeat CPU 0 instructions: 211001256 cycles: 62034919 heartbeat IPC: 3.229 cumulative IPC: 3.095 (Simulation time: 00 hr 22 min 17 sec)
Heartbeat CPU 0 instructions: 211501260 cycles: 62203143 heartbeat IPC: 2.972 cumulative IPC: 3.094 (Simulation time: 00 hr 22 min 21 sec)
Heartbeat CPU 0 instructions: 212001263 cycles: 62358119 heartbeat IPC: 3.226 cumulative IPC: 3.095 (Simulation time: 00 hr 22 min 24 sec)
Heartbeat CPU 0 instructions: 212501263 cycles: 62523361 heartbeat IPC: 3.026 cumulative IPC: 3.095 (Simulation time: 00 hr 22 min 28 sec)
Heartbeat CPU 0 instructions: 213001265 cycles: 62686157 heartbeat IPC: 3.071 cumulative IPC: 3.094 (Simulation time: 00 hr 22 min 31 sec)
Heartbeat CPU 0 instructions: 213501265 cycles: 62836637 heartbeat IPC: 3.323 cumulative IPC: 3.095 (Simulation time: 00 hr 22 min 34 sec)
Heartbeat CPU 0 instructions: 214001269 cycles: 62997404 heartbeat IPC: 3.11 cumulative IPC: 3.095 (Simulation time: 00 hr 22 min 37 sec)
Heartbeat CPU 0 instructions: 214501275 cycles: 63165859 heartbeat IPC: 2.968 cumulative IPC: 3.095 (Simulation time: 00 hr 22 min 41 sec)
Heartbeat CPU 0 instructions: 215001280 cycles: 63334623 heartbeat IPC: 2.963 cumulative IPC: 3.094 (Simulation time: 00 hr 22 min 44 sec)
Heartbeat CPU 0 instructions: 215501286 cycles: 63492544 heartbeat IPC: 3.166 cumulative IPC: 3.095 (Simulation time: 00 hr 22 min 47 sec)
Heartbeat CPU 0 instructions: 216001293 cycles: 63659479 heartbeat IPC: 2.995 cumulative IPC: 3.094 (Simulation time: 00 hr 22 min 51 sec)
Heartbeat CPU 0 instructions: 216501300 cycles: 63823693 heartbeat IPC: 3.045 cumulative IPC: 3.094 (Simulation time: 00 hr 22 min 54 sec)
Heartbeat CPU 0 instructions: 217001303 cycles: 63986735 heartbeat IPC: 3.067 cumulative IPC: 3.094 (Simulation time: 00 hr 22 min 57 sec)
Heartbeat CPU 0 instructions: 217501306 cycles: 64145740 heartbeat IPC: 3.145 cumulative IPC: 3.094 (Simulation time: 00 hr 23 min 01 sec)
Heartbeat CPU 0 instructions: 218001312 cycles: 64308345 heartbeat IPC: 3.075 cumulative IPC: 3.094 (Simulation time: 00 hr 23 min 04 sec)
Heartbeat CPU 0 instructions: 218501318 cycles: 64476697 heartbeat IPC: 2.97 cumulative IPC: 3.094 (Simulation time: 00 hr 23 min 07 sec)
Heartbeat CPU 0 instructions: 219001325 cycles: 64651877 heartbeat IPC: 2.854 cumulative IPC: 3.093 (Simulation time: 00 hr 23 min 11 sec)
Heartbeat CPU 0 instructions: 219501325 cycles: 64807314 heartbeat IPC: 3.217 cumulative IPC: 3.093 (Simulation time: 00 hr 23 min 14 sec)
Heartbeat CPU 0 instructions: 220001325 cycles: 64966593 heartbeat IPC: 3.139 cumulative IPC: 3.093 (Simulation time: 00 hr 23 min 17 sec)
Heartbeat CPU 0 instructions: 220501325 cycles: 65137124 heartbeat IPC: 2.932 cumulative IPC: 3.093 (Simulation time: 00 hr 23 min 20 sec)
Heartbeat CPU 0 instructions: 221001326 cycles: 65303494 heartbeat IPC: 3.005 cumulative IPC: 3.093 (Simulation time: 00 hr 23 min 24 sec)
Heartbeat CPU 0 instructions: 221501329 cycles: 65458982 heartbeat IPC: 3.216 cumulative IPC: 3.093 (Simulation time: 00 hr 23 min 27 sec)
Heartbeat CPU 0 instructions: 222001335 cycles: 65625457 heartbeat IPC: 3.003 cumulative IPC: 3.093 (Simulation time: 00 hr 23 min 30 sec)
Heartbeat CPU 0 instructions: 222501340 cycles: 65784696 heartbeat IPC: 3.14 cumulative IPC: 3.093 (Simulation time: 00 hr 23 min 33 sec)
Heartbeat CPU 0 instructions: 223001341 cycles: 65950798 heartbeat IPC: 3.01 cumulative IPC: 3.093 (Simulation time: 00 hr 23 min 37 sec)
Heartbeat CPU 0 instructions: 223501344 cycles: 66117862 heartbeat IPC: 2.993 cumulative IPC: 3.092 (Simulation time: 00 hr 23 min 40 sec)
Heartbeat CPU 0 instructions: 224001349 cycles: 66281808 heartbeat IPC: 3.05 cumulative IPC: 3.092 (Simulation time: 00 hr 23 min 43 sec)
Heartbeat CPU 0 instructions: 224501352 cycles: 66443801 heartbeat IPC: 3.087 cumulative IPC: 3.092 (Simulation time: 00 hr 23 min 47 sec)
Heartbeat CPU 0 instructions: 225001353 cycles: 66607671 heartbeat IPC: 3.051 cumulative IPC: 3.092 (Simulation time: 00 hr 23 min 50 sec)
Heartbeat CPU 0 instructions: 225501353 cycles: 66766958 heartbeat IPC: 3.139 cumulative IPC: 3.092 (Simulation time: 00 hr 23 min 53 sec)
Heartbeat CPU 0 instructions: 226001353 cycles: 66927593 heartbeat IPC: 3.113 cumulative IPC: 3.092 (Simulation time: 00 hr 23 min 57 sec)
Heartbeat CPU 0 instructions: 226501356 cycles: 67095219 heartbeat IPC: 2.983 cumulative IPC: 3.092 (Simulation time: 00 hr 24 min 00 sec)
Heartbeat CPU 0 instructions: 227001361 cycles: 67263883 heartbeat IPC: 2.965 cumulative IPC: 3.092 (Simulation time: 00 hr 24 min 03 sec)
Heartbeat CPU 0 instructions: 227501365 cycles: 67423322 heartbeat IPC: 3.136 cumulative IPC: 3.092 (Simulation time: 00 hr 24 min 07 sec)
Heartbeat CPU 0 instructions: 228001371 cycles: 67576883 heartbeat IPC: 3.256 cumulative IPC: 3.092 (Simulation time: 00 hr 24 min 10 sec)
Heartbeat CPU 0 instructions: 228501373 cycles: 67751370 heartbeat IPC: 2.866 cumulative IPC: 3.091 (Simulation time: 00 hr 24 min 13 sec)
Heartbeat CPU 0 instructions: 229001379 cycles: 67911959 heartbeat IPC: 3.114 cumulative IPC: 3.091 (Simulation time: 00 hr 24 min 16 sec)
Heartbeat CPU 0 instructions: 229501384 cycles: 68073751 heartbeat IPC: 3.09 cumulative IPC: 3.091 (Simulation time: 00 hr 24 min 20 sec)
Heartbeat CPU 0 instructions: 230001384 cycles: 68233468 heartbeat IPC: 3.131 cumulative IPC: 3.092 (Simulation time: 00 hr 24 min 23 sec)
Heartbeat CPU 0 instructions: 230501385 cycles: 68400461 heartbeat IPC: 2.994 cumulative IPC: 3.091 (Simulation time: 00 hr 24 min 26 sec)
Heartbeat CPU 0 instructions: 231001392 cycles: 68554190 heartbeat IPC: 3.253 cumulative IPC: 3.092 (Simulation time: 00 hr 24 min 29 sec)
Heartbeat CPU 0 instructions: 231501399 cycles: 68716870 heartbeat IPC: 3.074 cumulative IPC: 3.092 (Simulation time: 00 hr 24 min 33 sec)
Heartbeat CPU 0 instructions: 232001405 cycles: 68876719 heartbeat IPC: 3.128 cumulative IPC: 3.092 (Simulation time: 00 hr 24 min 36 sec)
Heartbeat CPU 0 instructions: 232501405 cycles: 69040412 heartbeat IPC: 3.054 cumulative IPC: 3.092 (Simulation time: 00 hr 24 min 39 sec)
Heartbeat CPU 0 instructions: 233001409 cycles: 69206217 heartbeat IPC: 3.016 cumulative IPC: 3.091 (Simulation time: 00 hr 24 min 42 sec)
Heartbeat CPU 0 instructions: 233501411 cycles: 69369950 heartbeat IPC: 3.054 cumulative IPC: 3.091 (Simulation time: 00 hr 24 min 46 sec)
Heartbeat CPU 0 instructions: 234001417 cycles: 69538887 heartbeat IPC: 2.96 cumulative IPC: 3.091 (Simulation time: 00 hr 24 min 49 sec)
Heartbeat CPU 0 instructions: 234501421 cycles: 69692977 heartbeat IPC: 3.245 cumulative IPC: 3.091 (Simulation time: 00 hr 24 min 52 sec)
Heartbeat CPU 0 instructions: 235001428 cycles: 69845542 heartbeat IPC: 3.277 cumulative IPC: 3.092 (Simulation time: 00 hr 24 min 55 sec)
Heartbeat CPU 0 instructions: 235501432 cycles: 70012534 heartbeat IPC: 2.994 cumulative IPC: 3.092 (Simulation time: 00 hr 24 min 58 sec)
Heartbeat CPU 0 instructions: 236001437 cycles: 70200874 heartbeat IPC: 2.655 cumulative IPC: 3.09 (Simulation time: 00 hr 25 min 02 sec)
Heartbeat CPU 0 instructions: 236501438 cycles: 70370094 heartbeat IPC: 2.955 cumulative IPC: 3.09 (Simulation time: 00 hr 25 min 05 sec)
Heartbeat CPU 0 instructions: 237001444 cycles: 70534330 heartbeat IPC: 3.044 cumulative IPC: 3.09 (Simulation time: 00 hr 25 min 08 sec)
Heartbeat CPU 0 instructions: 237501444 cycles: 70693011 heartbeat IPC: 3.151 cumulative IPC: 3.09 (Simulation time: 00 hr 25 min 12 sec)
Heartbeat CPU 0 instructions: 238001450 cycles: 70852244 heartbeat IPC: 3.14 cumulative IPC: 3.09 (Simulation time: 00 hr 25 min 15 sec)
Heartbeat CPU 0 instructions: 238501457 cycles: 71011735 heartbeat IPC: 3.135 cumulative IPC: 3.09 (Simulation time: 00 hr 25 min 18 sec)
Heartbeat CPU 0 instructions: 239001458 cycles: 71166889 heartbeat IPC: 3.223 cumulative IPC: 3.09 (Simulation time: 00 hr 25 min 21 sec)
Heartbeat CPU 0 instructions: 239501461 cycles: 71330494 heartbeat IPC: 3.056 cumulative IPC: 3.09 (Simulation time: 00 hr 25 min 24 sec)
Heartbeat CPU 0 instructions: 240001468 cycles: 71500044 heartbeat IPC: 2.949 cumulative IPC: 3.09 (Simulation time: 00 hr 25 min 27 sec)
Heartbeat CPU 0 instructions: 240501470 cycles: 71661242 heartbeat IPC: 3.102 cumulative IPC: 3.09 (Simulation time: 00 hr 25 min 30 sec)
Heartbeat CPU 0 instructions: 241001476 cycles: 71830845 heartbeat IPC: 2.948 cumulative IPC: 3.09 (Simulation time: 00 hr 25 min 34 sec)
Heartbeat CPU 0 instructions: 241501478 cycles: 71992203 heartbeat IPC: 3.099 cumulative IPC: 3.09 (Simulation time: 00 hr 25 min 37 sec)
Heartbeat CPU 0 instructions: 242001482 cycles: 72151456 heartbeat IPC: 3.14 cumulative IPC: 3.09 (Simulation time: 00 hr 25 min 40 sec)
Heartbeat CPU 0 instructions: 242501482 cycles: 72307058 heartbeat IPC: 3.213 cumulative IPC: 3.09 (Simulation time: 00 hr 25 min 43 sec)
Heartbeat CPU 0 instructions: 243001488 cycles: 72469267 heartbeat IPC: 3.082 cumulative IPC: 3.09 (Simulation time: 00 hr 25 min 46 sec)
Heartbeat CPU 0 instructions: 243501488 cycles: 72632626 heartbeat IPC: 3.061 cumulative IPC: 3.09 (Simulation time: 00 hr 25 min 49 sec)
Heartbeat CPU 0 instructions: 244001488 cycles: 72788772 heartbeat IPC: 3.202 cumulative IPC: 3.09 (Simulation time: 00 hr 25 min 52 sec)
Heartbeat CPU 0 instructions: 244501493 cycles: 72960008 heartbeat IPC: 2.92 cumulative IPC: 3.09 (Simulation time: 00 hr 25 min 56 sec)
Heartbeat CPU 0 instructions: 245001500 cycles: 73122528 heartbeat IPC: 3.077 cumulative IPC: 3.09 (Simulation time: 00 hr 25 min 59 sec)
Heartbeat CPU 0 instructions: 245501505 cycles: 73282551 heartbeat IPC: 3.125 cumulative IPC: 3.09 (Simulation time: 00 hr 26 min 02 sec)
Heartbeat CPU 0 instructions: 246001510 cycles: 73445540 heartbeat IPC: 3.068 cumulative IPC: 3.09 (Simulation time: 00 hr 26 min 05 sec)
Heartbeat CPU 0 instructions: 246501512 cycles: 73611202 heartbeat IPC: 3.018 cumulative IPC: 3.09 (Simulation time: 00 hr 26 min 09 sec)
Heartbeat CPU 0 instructions: 247001512 cycles: 73766090 heartbeat IPC: 3.228 cumulative IPC: 3.09 (Simulation time: 00 hr 26 min 12 sec)
Heartbeat CPU 0 instructions: 247501514 cycles: 73921689 heartbeat IPC: 3.213 cumulative IPC: 3.09 (Simulation time: 00 hr 26 min 15 sec)
Heartbeat CPU 0 instructions: 248001516 cycles: 74080601 heartbeat IPC: 3.146 cumulative IPC: 3.09 (Simulation time: 00 hr 26 min 18 sec)
Heartbeat CPU 0 instructions: 248501520 cycles: 74255163 heartbeat IPC: 2.864 cumulative IPC: 3.09 (Simulation time: 00 hr 26 min 21 sec)
Heartbeat CPU 0 instructions: 249001525 cycles: 74416345 heartbeat IPC: 3.102 cumulative IPC: 3.09 (Simulation time: 00 hr 26 min 24 sec)
Heartbeat CPU 0 instructions: 249501525 cycles: 74583110 heartbeat IPC: 2.998 cumulative IPC: 3.09 (Simulation time: 00 hr 26 min 28 sec)
Simulation finished CPU 0 instructions: 200000006 cycles: 64731858 cumulative IPC: 3.09 (Simulation time: 00 hr 26 min 31 sec)
Simulation complete CPU 0 instructions: 200000006 cycles: 64731858 cumulative IPC: 3.09 (Simulation time: 00 hr 26 min 31 sec)

ChampSim completed all CPUs

=== Simulation ===
CPU 0 runs /local-ssd/ben/dpc4-traces/SPEC17/649.fotonik3d_s-7084B.champsimtrace.xz

Region of Interest Statistics

CPU 0 cumulative IPC: 3.09 instructions: 200000006 cycles: 64731858
CPU 0 Branch Prediction Accuracy: 99.19% MPKI: 0.05619 Average ROB Occupancy at Mispredict: 568.1
Branch type MPKI
BRANCH_DIRECT_JUMP: 0
BRANCH_INDIRECT: 0
BRANCH_CONDITIONAL: 0.05619
BRANCH_DIRECT_CALL: 0
BRANCH_INDIRECT_CALL: 0
BRANCH_RETURN: 0

cpu0->cpu0_STLB TOTAL        ACCESS:     139300 HIT:      84653 MISS:      54647 MSHR_MERGE:          0
cpu0->cpu0_STLB LOAD         ACCESS:     139300 HIT:      84653 MISS:      54647 MSHR_MERGE:          0
cpu0->cpu0_STLB RFO          ACCESS:          0 HIT:          0 MISS:          0 MSHR_MERGE:          0
cpu0->cpu0_STLB PREFETCH     ACCESS:          0 HIT:          0 MISS:          0 MSHR_MERGE:          0
cpu0->cpu0_STLB WRITE        ACCESS:          0 HIT:          0 MISS:          0 MSHR_MERGE:          0
cpu0->cpu0_STLB TRANSLATION  ACCESS:          0 HIT:          0 MISS:          0 MSHR_MERGE:          0
cpu0->cpu0_STLB PREFETCH REQUESTED:          0 ISSUED:          0 USEFUL:          0 USELESS:          0
cpu0->cpu0_STLB AVERAGE MISS LATENCY: 299.5 cycles
cpu0->cpu0_L2C TOTAL        ACCESS:   18020716 HIT:   13834219 MISS:    4186497 MSHR_MERGE:     694037
cpu0->cpu0_L2C LOAD         ACCESS:    1251526 HIT:    1193054 MISS:      58472 MSHR_MERGE:       5646
cpu0->cpu0_L2C RFO          ACCESS:          0 HIT:          0 MISS:          0 MSHR_MERGE:          0
cpu0->cpu0_L2C PREFETCH     ACCESS:   15685134 HIT:   11564142 MISS:    4120992 MSHR_MERGE:     688391
cpu0->cpu0_L2C WRITE        ACCESS:    1039311 HIT:    1039300 MISS:         11 MSHR_MERGE:          0
cpu0->cpu0_L2C TRANSLATION  ACCESS:      44745 HIT:      37723 MISS:       7022 MSHR_MERGE:          0
cpu0->cpu0_L2C PREFETCH REQUESTED:   14283637 ISSUED:   13462676 USEFUL:    2935695 USELESS:     176458
cpu0->cpu0_L2C AVERAGE MISS LATENCY: 227.4 cycles
cpu0->cpu0_L1I TOTAL        ACCESS:   32475648 HIT:   32475648 MISS:          0 MSHR_MERGE:          0
cpu0->cpu0_L1I LOAD         ACCESS:   32475648 HIT:   32475648 MISS:          0 MSHR_MERGE:          0
cpu0->cpu0_L1I RFO          ACCESS:          0 HIT:          0 MISS:          0 MSHR_MERGE:          0
cpu0->cpu0_L1I PREFETCH     ACCESS:          0 HIT:          0 MISS:          0 MSHR_MERGE:          0
cpu0->cpu0_L1I WRITE        ACCESS:          0 HIT:          0 MISS:          0 MSHR_MERGE:          0
cpu0->cpu0_L1I TRANSLATION  ACCESS:          0 HIT:          0 MISS:          0 MSHR_MERGE:          0
cpu0->cpu0_L1I PREFETCH REQUESTED:          0 ISSUED:          0 USEFUL:          0 USELESS:          0
cpu0->cpu0_L1I AVERAGE MISS LATENCY: - cycles
cpu0->cpu0_L1D TOTAL        ACCESS:   48536044 HIT:   44667716 MISS:    3868328 MSHR_MERGE:     349598
cpu0->cpu0_L1D LOAD         ACCESS:   30766634 HIT:   29437321 MISS:    1329313 MSHR_MERGE:      77785
cpu0->cpu0_L1D RFO          ACCESS:          0 HIT:          0 MISS:          0 MSHR_MERGE:          0
cpu0->cpu0_L1D PREFETCH     ACCESS:    7825682 HIT:    5331419 MISS:    2494263 MSHR_MERGE:     271806
cpu0->cpu0_L1D WRITE        ACCESS:    9834355 HIT:    9834355 MISS:          0 MSHR_MERGE:          0
cpu0->cpu0_L1D TRANSLATION  ACCESS:     109373 HIT:      64621 MISS:      44752 MSHR_MERGE:          7
cpu0->cpu0_L1D PREFETCH REQUESTED:   33066972 ISSUED:    7825683 USEFUL:    2030119 USELESS:     192324
cpu0->cpu0_L1D AVERAGE MISS LATENCY: 30.81 cycles
cpu0->cpu0_ITLB TOTAL        ACCESS:   24989038 HIT:   24989038 MISS:          0 MSHR_MERGE:          0
cpu0->cpu0_ITLB LOAD         ACCESS:   24989038 HIT:   24989038 MISS:          0 MSHR_MERGE:          0
cpu0->cpu0_ITLB RFO          ACCESS:          0 HIT:          0 MISS:          0 MSHR_MERGE:          0
cpu0->cpu0_ITLB PREFETCH     ACCESS:          0 HIT:          0 MISS:          0 MSHR_MERGE:          0
cpu0->cpu0_ITLB WRITE        ACCESS:          0 HIT:          0 MISS:          0 MSHR_MERGE:          0
cpu0->cpu0_ITLB TRANSLATION  ACCESS:          0 HIT:          0 MISS:          0 MSHR_MERGE:          0
cpu0->cpu0_ITLB PREFETCH REQUESTED:          0 ISSUED:          0 USEFUL:          0 USELESS:          0
cpu0->cpu0_ITLB AVERAGE MISS LATENCY: - cycles
cpu0->cpu0_DTLB TOTAL        ACCESS:   45650081 HIT:   45403259 MISS:     246822 MSHR_MERGE:     107522
cpu0->cpu0_DTLB LOAD         ACCESS:   45650081 HIT:   45403259 MISS:     246822 MSHR_MERGE:     107522
cpu0->cpu0_DTLB RFO          ACCESS:          0 HIT:          0 MISS:          0 MSHR_MERGE:          0
cpu0->cpu0_DTLB PREFETCH     ACCESS:          0 HIT:          0 MISS:          0 MSHR_MERGE:          0
cpu0->cpu0_DTLB WRITE        ACCESS:          0 HIT:          0 MISS:          0 MSHR_MERGE:          0
cpu0->cpu0_DTLB TRANSLATION  ACCESS:          0 HIT:          0 MISS:          0 MSHR_MERGE:          0
cpu0->cpu0_DTLB PREFETCH REQUESTED:          0 ISSUED:          0 USEFUL:          0 USELESS:          0
cpu0->cpu0_DTLB AVERAGE MISS LATENCY: 122.9 cycles
cpu0->LLC TOTAL        ACCESS:    7901024 HIT:    3493504 MISS:    4407520 MSHR_MERGE:     649629
cpu0->LLC LOAD         ACCESS:      52826 HIT:      50017 MISS:       2809 MSHR_MERGE:        739
cpu0->LLC RFO          ACCESS:          0 HIT:          0 MISS:          0 MSHR_MERGE:          0
cpu0->LLC PREFETCH     ACCESS:    6802873 HIT:    2645528 MISS:    4157345 MSHR_MERGE:     648890
cpu0->LLC WRITE        ACCESS:    1038303 HIT:     797959 MISS:     240344 MSHR_MERGE:          0
cpu0->LLC TRANSLATION  ACCESS:       7022 HIT:          0 MISS:       7022 MSHR_MERGE:          0
cpu0->LLC PREFETCH REQUESTED:   11713092 ISSUED:    3370272 USEFUL:    2692491 USELESS:     447387
cpu0->LLC AVERAGE MISS LATENCY: 46.37 cycles

DRAM Statistics

Channel 0 RQ ROW_BUFFER_HIT:      97438
  ROW_BUFFER_MISS:    3420051
  AVG DBUS CONGESTED CYCLE: 6.096
Channel 0 WQ ROW_BUFFER_HIT:      10443
  ROW_BUFFER_MISS:    1027053
  FULL:        773
Channel 0 REFRESHES ISSUED:       5394
